#       Name:                unknown
#       Creating user name   williammccorkindale
#       Creation time:       Tue Jun  7 14:55:34 2022


#       File generated by GOLD software.
#

@<TRIPOS>MOLECULE
unknown|prepared_Mpro-x0354|mol2|1|dock1
    43    44     1
SMALL
NO_CHARGES


@<TRIPOS>ATOM
      1 C1         -13.5050  13.3992  72.6936 C.3            1 RES1               0.0000
      2 N2         -13.5540  14.8012  72.4156 N.3            1 RES1               0.0000
      3 C3         -13.9623  15.0517  71.0673 C.3            1 RES1               0.0000
      4 C4         -12.8724  14.6918  70.0605 C.3            1 RES1               0.0000
      5 N5         -11.6856  15.3882  70.4687 N.am           1 RES1               0.0000
      6 C6         -11.2047  15.2280  71.8152 C.3            1 RES1               0.0000
      7 C7         -12.3618  15.5128  72.7480 C.3            1 RES1               0.0000
      8 C8         -11.0063  16.2185  69.5508 C.2            1 RES1               0.0000
      9 O9          -9.9604  16.8487  69.8639 O.2            1 RES1               0.0000
     10 C10        -11.5386  16.3544  68.1749 C.3            1 RES1               0.0000
     11 O11        -10.6173  15.7774  67.2826 O.3            1 RES1               0.0000
     12 C12        -11.0802  14.8450  66.3516 C.ar           1 RES1               0.0000
     13 C13        -10.2476  14.3069  65.3927 C.ar           1 RES1               0.0000
     14 C14        -10.7095  13.3854  64.4743 C.ar           1 RES1               0.0000
     15 C15        -12.0207  12.9529  64.4628 C.ar           1 RES1               0.0000
     16 C16        -12.5116  11.9609  63.4717 C.3            1 RES1               0.0000
     17 C17        -12.8520  13.4935  65.4243 C.ar           1 RES1               0.0000
     18 C18        -12.3903  14.4150  66.3428 C.ar           1 RES1               0.0000
     19 H19        -14.0655  12.7905  71.9301 H              1 RES1               0.0000
     20 H20        -12.4560  13.0430  72.7599 H              1 RES1               0.0000
     21 H21        -14.0657  13.2302  73.6539 H              1 RES1               0.0000
     22 H22        -14.1595  16.1274  70.9460 H              1 RES1               0.0000
     23 H23        -14.8268  14.4046  70.8421 H              1 RES1               0.0000
     24 H24        -12.7074  13.5955  70.0283 H              1 RES1               0.0000
     25 H25        -13.2626  15.0280  69.0734 H              1 RES1               0.0000
     26 H26        -10.8208  14.2094  72.0107 H              1 RES1               0.0000
     27 H27        -10.4041  15.9438  72.0218 H              1 RES1               0.0000
     28 H28        -12.5892  16.6087  72.6403 H              1 RES1               0.0000
     29 H29        -12.0156  15.3183  73.7665 H              1 RES1               0.0000
     30 H30        -11.7272  17.4255  67.9197 H              1 RES1               0.0000
     31 H31        -12.5515  15.8645  68.0875 H              1 RES1               0.0000
     32 H32         -9.2115  14.6344  65.3849 H              1 RES1               0.0000
     33 H33        -10.0427  12.9639  63.7176 H              1 RES1               0.0000
     34 H34        -12.7737  12.4898  62.5238 H              1 RES1               0.0000
     35 H35        -11.7761  11.1466  63.3005 H              1 RES1               0.0000
     36 H36        -13.4351  11.4729  63.8304 H              1 RES1               0.0000
     37 H37        -13.8854  13.1610  65.4251 H              1 RES1               0.0000
     38 H38        -13.0666  14.8302  67.0957 H              1 RES1               0.0000
     39 ****       -14.2518  15.1679  73.0309 LP             1 RES1               0.0000
     40 ****        -9.5865  16.7693  70.7879 LP             1 RES1               0.0000
     41 ****        -9.5047  17.4282  69.1882 LP             1 RES1               0.0000
     42 ****        -9.9193  15.3209  67.8344 LP             1 RES1               0.0000
     43 ****       -10.1985  16.5251  66.7674 LP             1 RES1               0.0000
@<TRIPOS>BOND
    1    1    2 1     
    2    2    3 1     
    3    3    4 1     
    4    4    5 1     
    5    5    6 1     
    6    6    7 1     
    7    5    8 am    
    8    8    9 2     
    9    8   10 1     
   10   10   11 1     
   11   11   12 1     
   12   12   13 ar    
   13   13   14 ar    
   14   14   15 ar    
   15   15   16 1     
   16   15   17 ar    
   17   17   18 ar    
   18    7    2 1     
   19   12   18 ar    
   20    1   19 1     
   21    1   20 1     
   22    1   21 1     
   23    3   22 1     
   24    3   23 1     
   25    4   24 1     
   26    4   25 1     
   27    6   26 1     
   28    6   27 1     
   29    7   28 1     
   30    7   29 1     
   31   10   30 1     
   32   10   31 1     
   33   13   32 1     
   34   14   33 1     
   35   16   34 1     
   36   16   35 1     
   37   16   36 1     
   38   17   37 1     
   39   18   38 1     
   40    2   39 1     
   41    9   40 1     
   42    9   41 1     
   43   11   42 1     
   44   11   43 1     
@<TRIPOS>SUBSTRUCTURE
      1 RES1           1
@<TRIPOS>SET
LONE_PAIRS      STATIC     ATOMS    <user>   **** ""
5 39 40 41 42 43
ATOM$BLUE        STATIC     ATOMS    COLORGROUP SYSTEM
5 39 40 41 42 43
@<TRIPOS>COMMENT
> <Gold.Version>
2022.1.0

> <Gold.Id.Protein>
6LU7|6LU7_protein|mol2

> <Gold.Protein.RotatedTorsions>
[ 3973 1471 1470 1467 ] final   64.11 input   60.00 | X-H torsion
[ 3372  414  413  411 ] final -165.01 input   60.00 | X-H torsion
[ 4268 1114 1113 1110 ] final   93.29 input   59.99 | X-H torsion
[ 4409  924  923  921 ] final  173.16 input   59.99 | X-H torsion
[ 4183 1244 1243 1241 ] final -114.96 input   59.99 | X-H torsion
[ 3800  178  177  174 ] final  139.56 input   60.00 | X-H torsion
[ 3793  171  170  167 ] final   42.34 input   60.00 | X-H torsion
[ 3576  185  184  181 ] final -126.69 input   60.00 | X-H torsion
[ 3523  346  345  342 ] final   24.56 input   60.01 | X-H torsion
[ 3515  339  338  335 ] final   -2.48 input   60.00 | X-H torsion
[ 3663  154  153  150 ] final  109.64 input   60.00 | X-H torsion
[ 4280 1130 1129 1126 ] final -159.36 input   60.00 | X-H torsion

> <Gold.Protein.ActiveResidues>
 VAL20   THR21   CYS22   GLY23   THR24   THR25   THR26   LEU27   ASN28   PRO39  
 ARG40   HIS41   VAL42   CYS44   THR45   SER46   ASP48   MET49   LEU50   PRO52  
 TYR54   TYR118  ASN119  ILE136  GLY138  SER139  PHE140  LEU141  ASN142  GLY143 
 SER144  CYS145  GLY146  SER147  TYR161  HIS163  HIS164  MET165  GLU166  LEU167 
 PRO168  THR169  GLY170  VAL171  HIS172  ALA173  PHE181  PHE185  VAL186  ASP187 
 ARG188  GLN189  THR190  ALA191  GLN192  ALA193 

> <Gold.Protein.RotatedAtoms>
  -15.2959   16.9964   75.9782 H   0  0  0  0  0  0  0  0  0  0  0  0  # atno 3372 bound_to 414 
   -3.6154   20.7877   74.3855 H   0  0  0  0  0  0  0  0  0  0  0  0  # atno 3515 bound_to 339 
   -3.3746   18.2642   73.0464 H   0  0  0  0  0  0  0  0  0  0  0  0  # atno 3523 bound_to 346 
   -7.4215   25.3648   63.0584 H   0  0  0  0  0  0  0  0  0  0  0  0  # atno 3576 bound_to 185 
   -7.8499   29.9684   64.9601 H   0  0  0  0  0  0  0  0  0  0  0  0  # atno 3663 bound_to 154 
   -3.4846   23.9808   71.8653 H   0  0  0  0  0  0  0  0  0  0  0  0  # atno 3793 bound_to 171 
   -7.4605   23.5854   72.5166 H   0  0  0  0  0  0  0  0  0  0  0  0  # atno 3800 bound_to 178 
  -15.4332    7.3786   77.2539 H   0  0  0  0  0  0  0  0  0  0  0  0  # atno 3973 bound_to 1471
  -20.0118   13.9234   64.0554 H   0  0  0  0  0  0  0  0  0  0  0  0  # atno 4183 bound_to 1244
  -14.2137   15.9701   61.3357 H   0  0  0  0  0  0  0  0  0  0  0  0  # atno 4268 bound_to 1114
  -16.0411   18.7357   58.2656 H   0  0  0  0  0  0  0  0  0  0  0  0  # atno 4280 bound_to 1130
  -10.7568   15.0179   57.9244 H   0  0  0  0  0  0  0  0  0  0  0  0  # atno 4409 bound_to 924 
  -14.9812    8.9413   77.2096 LP  0  0  0  0  0  0  0  0  0  0  0  0  # atno 4696 bound_to 1471
  -15.6192    8.3113   78.5744 LP  0  0  0  0  0  0  0  0  0  0  0  0  # atno 4697 bound_to 1471
  -13.8582   17.7519   76.0796 LP  0  0  0  0  0  0  0  0  0  0  0  0  # atno 4731 bound_to 414 
  -14.9377   18.1948   74.9372 LP  0  0  0  0  0  0  0  0  0  0  0  0  # atno 4732 bound_to 414 
  -12.8085   16.2495   62.1073 LP  0  0  0  0  0  0  0  0  0  0  0  0  # atno 4733 bound_to 1114
  -12.8857   15.1231   60.9275 LP  0  0  0  0  0  0  0  0  0  0  0  0  # atno 4734 bound_to 1114
  -10.9258   15.0368   56.3060 LP  0  0  0  0  0  0  0  0  0  0  0  0  # atno 4763 bound_to 924 
  -12.1859   15.4331   57.2661 LP  0  0  0  0  0  0  0  0  0  0  0  0  # atno 4764 bound_to 924 
  -20.3284   12.8422   62.8812 LP  0  0  0  0  0  0  0  0  0  0  0  0  # atno 4771 bound_to 1244
  -21.0296   12.6878   64.3478 LP  0  0  0  0  0  0  0  0  0  0  0  0  # atno 4772 bound_to 1244
   -6.0839   23.5786   71.6488 LP  0  0  0  0  0  0  0  0  0  0  0  0  # atno 4775 bound_to 178 
   -7.0670   22.2747   71.6361 LP  0  0  0  0  0  0  0  0  0  0  0  0  # atno 4776 bound_to 178 
   -2.5498   24.9766   72.7497 LP  0  0  0  0  0  0  0  0  0  0  0  0  # atno 4779 bound_to 171 
   -1.9212   23.6078   72.1192 LP  0  0  0  0  0  0  0  0  0  0  0  0  # atno 4780 bound_to 171 
   -7.7298   26.8421   63.6672 LP  0  0  0  0  0  0  0  0  0  0  0  0  # atno 4783 bound_to 185 
   -8.8040   25.6298   63.8747 LP  0  0  0  0  0  0  0  0  0  0  0  0  # atno 4784 bound_to 185 
   -2.9741   16.7712   72.5379 LP  0  0  0  0  0  0  0  0  0  0  0  0  # atno 4785 bound_to 346 
   -1.8105   17.8169   73.0062 LP  0  0  0  0  0  0  0  0  0  0  0  0  # atno 4786 bound_to 346 
   -2.7194   21.0362   75.7210 LP  0  0  0  0  0  0  0  0  0  0  0  0  # atno 4787 bound_to 339 
   -3.1302   22.2941   74.7641 LP  0  0  0  0  0  0  0  0  0  0  0  0  # atno 4788 bound_to 339 
   -8.3333   28.4841   65.4196 LP  0  0  0  0  0  0  0  0  0  0  0  0  # atno 4797 bound_to 154 
   -6.7415   28.8399   65.3422 LP  0  0  0  0  0  0  0  0  0  0  0  0  # atno 4798 bound_to 154 

> <Gold.Score>
     Score     S(PLP)   S(hbond)     S(cho)   S(metal)  DE(clash)   DE(tors)     intcor
     44.92     -45.73       0.00       0.00       0.00       0.00       0.41       0.01

> <Gold.PLP.Fitness>
44.9205

> <Gold.PLP.PLP>
-45.7305

> <Gold.PLP.part.hbond>
0.0000

> <Gold.PLP.part.metal>
0.0000

> <Gold.PLP.part.buried>
-1.3142

> <Gold.PLP.part.nonpolar>
-46.7259

> <Gold.PLP.part.repulsive>
0.1831

> <Gold.PLP.ligand.clash>
0.0000

> <Gold.PLP.ligand.torsion>
0.4116

> <Gold.PLP.Chemscore.Hbond>
0.0000

> <Gold.PLP.Chemscore.CHOScore>
0.0000

> <Gold.PLP.Chemscore.Metal>
0.0000

> <Gold.PLP.Chemscore.Internal.Correction>
0.0132

#       Name:                unknown
#       Creating user name   williammccorkindale
#       Creation time:       Tue Jun  7 14:55:34 2022


#       File generated by GOLD software.
#

@<TRIPOS>MOLECULE
unknown|prepared_Mpro-x0354|mol2|1|dock2
    43    44     1
SMALL
NO_CHARGES


@<TRIPOS>ATOM
      1 C1         -12.2986  13.6123  63.5897 C.3            1 RES1               0.0000
      2 N2         -11.2760  13.7897  64.5738 N.3            1 RES1               0.0000
      3 C3         -10.4635  12.6186  64.6989 C.3            1 RES1               0.0000
      4 C4         -11.2037  11.4769  65.3914 C.3            1 RES1               0.0000
      5 N5         -11.7015  11.9988  66.6322 N.am           1 RES1               0.0000
      6 C6         -12.5063  13.1914  66.6208 C.3            1 RES1               0.0000
      7 C7         -11.7476  14.2442  65.8424 C.3            1 RES1               0.0000
      8 C8         -11.3983  11.3411  67.8442 C.2            1 RES1               0.0000
      9 O9         -10.6948  10.2957  67.8817 O.2            1 RES1               0.0000
     10 C10        -11.9230  11.8962  69.1136 C.3            1 RES1               0.0000
     11 O11        -11.5402  13.2467  69.2002 O.3            1 RES1               0.0000
     12 C12        -11.8726  13.9649  70.3509 C.ar           1 RES1               0.0000
     13 C13        -11.4095  15.2468  70.5616 C.ar           1 RES1               0.0000
     14 C14        -11.7407  15.9531  71.7006 C.ar           1 RES1               0.0000
     15 C15        -12.5481  15.4213  72.6864 C.ar           1 RES1               0.0000
     16 C16        -12.9009  16.1867  73.9100 C.3            1 RES1               0.0000
     17 C17        -13.0104  14.1375  72.4725 C.ar           1 RES1               0.0000
     18 C18        -12.6793  13.4310  71.3336 C.ar           1 RES1               0.0000
     19 H19        -12.0937  12.7376  62.9110 H              1 RES1               0.0000
     20 H20        -13.2933  13.4913  64.0667 H              1 RES1               0.0000
     21 H21        -12.2664  14.5082  62.9106 H              1 RES1               0.0000
     22 H22         -9.5902  12.8531  65.3258 H              1 RES1               0.0000
     23 H23        -10.2112  12.2631  63.6855 H              1 RES1               0.0000
     24 H24        -12.0267  11.0928  64.7547 H              1 RES1               0.0000
     25 H25        -10.4444  10.6735  65.5246 H              1 RES1               0.0000
     26 H26        -13.4948  13.0322  66.1510 H              1 RES1               0.0000
     27 H27        -12.6635  13.5551  67.6401 H              1 RES1               0.0000
     28 H28        -10.8433  14.4999  66.4597 H              1 RES1               0.0000
     29 H29        -12.3917  15.1246  65.7707 H              1 RES1               0.0000
     30 H30        -11.5493  11.3162  69.9922 H              1 RES1               0.0000
     31 H31        -13.0451  11.7872  69.1645 H              1 RES1               0.0000
     32 H32        -10.7724  15.6836  69.7973 H              1 RES1               0.0000
     33 H33        -11.3692  16.9688  71.8596 H              1 RES1               0.0000
     34 H34        -12.0770  16.0831  74.6565 H              1 RES1               0.0000
     35 H35        -13.1222  17.2513  73.6841 H              1 RES1               0.0000
     36 H36        -13.8113  15.7750  74.3806 H              1 RES1               0.0000
     37 H37        -13.6462  13.7087  73.2410 H              1 RES1               0.0000
     38 H38        -13.0568  12.4151  71.1849 H              1 RES1               0.0000
     39 ****       -10.7055  14.5355  64.2297 LP             1 RES1               0.0000
     40 ****       -10.3321   9.9064  67.0350 LP             1 RES1               0.0000
     41 ****       -10.4996   9.8556  68.7582 LP             1 RES1               0.0000
     42 ****       -11.9582  13.7216  68.4257 LP             1 RES1               0.0000
     43 ****       -10.5445  13.2768  69.1117 LP             1 RES1               0.0000
@<TRIPOS>BOND
    1    1    2 1     
    2    2    3 1     
    3    3    4 1     
    4    4    5 1     
    5    5    6 1     
    6    6    7 1     
    7    5    8 am    
    8    8    9 2     
    9    8   10 1     
   10   10   11 1     
   11   11   12 1     
   12   12   13 ar    
   13   13   14 ar    
   14   14   15 ar    
   15   15   16 1     
   16   15   17 ar    
   17   17   18 ar    
   18    7    2 1     
   19   12   18 ar    
   20    1   19 1     
   21    1   20 1     
   22    1   21 1     
   23    3   22 1     
   24    3   23 1     
   25    4   24 1     
   26    4   25 1     
   27    6   26 1     
   28    6   27 1     
   29    7   28 1     
   30    7   29 1     
   31   10   30 1     
   32   10   31 1     
   33   13   32 1     
   34   14   33 1     
   35   16   34 1     
   36   16   35 1     
   37   16   36 1     
   38   17   37 1     
   39   18   38 1     
   40    2   39 1     
   41    9   40 1     
   42    9   41 1     
   43   11   42 1     
   44   11   43 1     
@<TRIPOS>SUBSTRUCTURE
      1 RES1           1
@<TRIPOS>SET
LONE_PAIRS      STATIC     ATOMS    <user>   **** ""
5 39 40 41 42 43
ATOM$BLUE        STATIC     ATOMS    COLORGROUP SYSTEM
5 39 40 41 42 43
@<TRIPOS>COMMENT
> <Gold.Version>
2022.1.0

> <Gold.Id.Protein>
6LU7|6LU7_protein|mol2

> <Gold.Protein.RotatedTorsions>
[ 3973 1471 1470 1467 ] final -154.74 input   60.00 | X-H torsion
[ 3372  414  413  411 ] final  149.81 input   60.00 | X-H torsion
[ 4268 1114 1113 1110 ] final    5.19 input   59.99 | X-H torsion
[ 4409  924  923  921 ] final -161.77 input   59.99 | X-H torsion
[ 4183 1244 1243 1241 ] final  132.81 input   59.99 | X-H torsion
[ 3800  178  177  174 ] final   -0.73 input   60.00 | X-H torsion
[ 3793  171  170  167 ] final   86.07 input   60.00 | X-H torsion
[ 3576  185  184  181 ] final -171.90 input   60.00 | X-H torsion
[ 3523  346  345  342 ] final -111.33 input   60.01 | X-H torsion
[ 3515  339  338  335 ] final   63.13 input   60.00 | X-H torsion
[ 3663  154  153  150 ] final -110.86 input   60.00 | X-H torsion
[ 4280 1130 1129 1126 ] final  159.34 input   60.00 | X-H torsion

> <Gold.Protein.ActiveResidues>
 VAL20   THR21   CYS22   GLY23   THR24   THR25   THR26   LEU27   ASN28   PRO39  
 ARG40   HIS41   VAL42   CYS44   THR45   SER46   ASP48   MET49   LEU50   PRO52  
 TYR54   TYR118  ASN119  ILE136  GLY138  SER139  PHE140  LEU141  ASN142  GLY143 
 SER144  CYS145  GLY146  SER147  TYR161  HIS163  HIS164  MET165  GLU166  LEU167 
 PRO168  THR169  GLY170  VAL171  HIS172  ALA173  PHE181  PHE185  VAL186  ASP187 
 ARG188  GLN189  THR190  ALA191  GLN192  ALA193 

> <Gold.Protein.RotatedAtoms>
  -14.6809   17.0084   76.3508 H   0  0  0  0  0  0  0  0  0  0  0  0  # atno 3372 bound_to 414 
   -3.5611   21.7871   74.2210 H   0  0  0  0  0  0  0  0  0  0  0  0  # atno 3515 bound_to 339 
   -2.7167   16.7375   72.5486 H   0  0  0  0  0  0  0  0  0  0  0  0  # atno 3523 bound_to 346 
   -7.1504   26.0291   63.1144 H   0  0  0  0  0  0  0  0  0  0  0  0  # atno 3576 bound_to 185 
   -6.8914   28.5720   65.4265 H   0  0  0  0  0  0  0  0  0  0  0  0  # atno 3663 bound_to 154 
   -3.0050   23.4960   71.7201 H   0  0  0  0  0  0  0  0  0  0  0  0  # atno 3793 bound_to 171 
   -6.0603   23.2888   71.4904 H   0  0  0  0  0  0  0  0  0  0  0  0  # atno 3800 bound_to 178 
  -15.5028    8.6274   78.5004 H   0  0  0  0  0  0  0  0  0  0  0  0  # atno 3973 bound_to 1471
  -20.2529   12.9447   62.8722 H   0  0  0  0  0  0  0  0  0  0  0  0  # atno 4183 bound_to 1244
  -13.2904   16.4340   62.1275 H   0  0  0  0  0  0  0  0  0  0  0  0  # atno 4268 bound_to 1114
  -15.7271   18.5964   58.8295 H   0  0  0  0  0  0  0  0  0  0  0  0  # atno 4280 bound_to 1130
  -11.1129   15.1278   58.0862 H   0  0  0  0  0  0  0  0  0  0  0  0  # atno 4409 bound_to 924 
  -15.5627    7.2984   77.5634 LP  0  0  0  0  0  0  0  0  0  0  0  0  # atno 4696 bound_to 1471
  -14.9676    8.6965   76.9653 LP  0  0  0  0  0  0  0  0  0  0  0  0  # atno 4697 bound_to 1471
  -13.9581   18.2138   75.5308 LP  0  0  0  0  0  0  0  0  0  0  0  0  # atno 4731 bound_to 414 
  -15.4572   17.7209   75.1107 LP  0  0  0  0  0  0  0  0  0  0  0  0  # atno 4732 bound_to 414 
  -12.5182   15.3077   61.2426 LP  0  0  0  0  0  0  0  0  0  0  0  0  # atno 4733 bound_to 1114
  -14.1060   15.5976   60.9948 LP  0  0  0  0  0  0  0  0  0  0  0  0  # atno 4734 bound_to 1114
  -10.6096   14.9462   56.5495 LP  0  0  0  0  0  0  0  0  0  0  0  0  # atno 4763 bound_to 924 
  -12.1434   15.4130   56.8596 LP  0  0  0  0  0  0  0  0  0  0  0  0  # atno 4764 bound_to 924 
  -21.0494   12.6073   64.2505 LP  0  0  0  0  0  0  0  0  0  0  0  0  # atno 4771 bound_to 1244
  -20.0657   13.9083   64.1700 LP  0  0  0  0  0  0  0  0  0  0  0  0  # atno 4772 bound_to 1244
   -7.3312   22.3307   71.8297 LP  0  0  0  0  0  0  0  0  0  0  0  0  # atno 4775 bound_to 178 
   -7.2299   23.8214   72.4886 LP  0  0  0  0  0  0  0  0  0  0  0  0  # atno 4776 bound_to 178 
   -3.2052   24.9056   72.5080 LP  0  0  0  0  0  0  0  0  0  0  0  0  # atno 4779 bound_to 171 
   -1.7488   24.1670   72.5072 LP  0  0  0  0  0  0  0  0  0  0  0  0  # atno 4780 bound_to 171 
   -8.3726   26.6868   63.9638 LP  0  0  0  0  0  0  0  0  0  0  0  0  # atno 4783 bound_to 185 
   -8.4343   25.1161   63.5217 LP  0  0  0  0  0  0  0  0  0  0  0  0  # atno 4784 bound_to 185 
   -1.9094   18.0462   73.0810 LP  0  0  0  0  0  0  0  0  0  0  0  0  # atno 4785 bound_to 346 
   -3.5379   18.0794   72.9645 LP  0  0  0  0  0  0  0  0  0  0  0  0  # atno 4786 bound_to 346 
   -3.2311   20.4384   75.0696 LP  0  0  0  0  0  0  0  0  0  0  0  0  # atno 4787 bound_to 339 
   -2.6732   21.8854   75.5812 LP  0  0  0  0  0  0  0  0  0  0  0  0  # atno 4788 bound_to 339 
   -7.5324   29.9923   64.9574 LP  0  0  0  0  0  0  0  0  0  0  0  0  # atno 4797 bound_to 154 
   -8.5076   28.7380   65.3347 LP  0  0  0  0  0  0  0  0  0  0  0  0  # atno 4798 bound_to 154 

> <Gold.Score>
     Score     S(PLP)   S(hbond)     S(cho)   S(metal)  DE(clash)   DE(tors)     intcor
     48.18     -48.35       0.00       0.00       0.00       0.00       0.09       0.00

> <Gold.PLP.Fitness>
48.1828

> <Gold.PLP.PLP>
-48.3510

> <Gold.PLP.part.hbond>
0.0000

> <Gold.PLP.part.metal>
0.0000

> <Gold.PLP.part.buried>
-3.7962

> <Gold.PLP.part.nonpolar>
-45.8016

> <Gold.PLP.part.repulsive>
0.3541

> <Gold.PLP.ligand.clash>
0.0000

> <Gold.PLP.ligand.torsion>
0.0855

> <Gold.PLP.Chemscore.Hbond>
0.0000

> <Gold.PLP.Chemscore.CHOScore>
0.0000

> <Gold.PLP.Chemscore.Metal>
0.0000

> <Gold.PLP.Chemscore.Internal.Correction>
0.0027

#       Name:                unknown
#       Creating user name   williammccorkindale
#       Creation time:       Tue Jun  7 14:55:35 2022


#       File generated by GOLD software.
#

@<TRIPOS>MOLECULE
unknown|prepared_Mpro-x0426|mol2|1|dock1
    34    35     1
SMALL
NO_CHARGES


@<TRIPOS>ATOM
      1 F1         -13.2117  12.9151  71.7295 F              1 RES1               0.0000
      2 C2         -12.7735  14.1292  72.1038 C.ar           1 RES1               0.0000
      3 C3         -13.1192  14.4902  73.4160 C.ar           1 RES1               0.0000
      4 C4         -12.7559  15.6957  73.9685 C.ar           1 RES1               0.0000
      5 C5         -12.0287  16.5484  73.1727 C.ar           1 RES1               0.0000
      6 C6         -11.6895  16.1961  71.8873 C.ar           1 RES1               0.0000
      7 C7         -12.0606  14.9673  71.3262 C.ar           1 RES1               0.0000
      8 C8         -11.6731  14.6521  69.9644 C.2            1 RES1               0.0000
      9 O9         -12.1545  15.3506  68.9952 O.2            1 RES1               0.0000
     10 N10        -10.7976  13.6323  69.5543 N.am           1 RES1               0.0000
     11 C11        -10.4893  13.4208  68.1317 C.3            1 RES1               0.0000
     12 C12        -11.1429  12.2147  67.5646 C.3            1 RES1               0.0000
     13 C13        -11.4012  12.2358  66.1239 C.ar           1 RES1               0.0000
     14 C14        -12.2367  13.1598  65.5767 C.ar           1 RES1               0.0000
     15 C15        -12.4948  13.2107  64.2054 C.ar           1 RES1               0.0000
     16 N16        -11.8989  12.3178  63.4006 N.ar           1 RES1               0.0000
     17 C17        -11.0693  11.3920  63.9042 C.ar           1 RES1               0.0000
     18 C18        -10.8046  11.3284  65.2498 C.ar           1 RES1               0.0000
     19 H19        -13.6939  13.8254  74.0562 H              1 RES1               0.0000
     20 H20        -13.0088  15.9932  74.9695 H              1 RES1               0.0000
     21 H21        -11.7109  17.5178  73.5522 H              1 RES1               0.0000
     22 H22        -11.1143  16.9078  71.3031 H              1 RES1               0.0000
     23 H23        -10.3602  13.0195  70.2584 H              1 RES1               0.0000
     24 H24         -9.4201  13.4928  67.9395 H              1 RES1               0.0000
     25 H25        -10.9536  14.3158  67.6203 H              1 RES1               0.0000
     26 H26        -10.4551  11.3524  67.7586 H              1 RES1               0.0000
     27 H27        -12.1280  12.0513  68.0801 H              1 RES1               0.0000
     28 H28        -12.7516  13.8964  66.1627 H              1 RES1               0.0000
     29 H29        -13.1640  13.9587  63.8058 H              1 RES1               0.0000
     30 H30        -10.5954  10.6778  63.2432 H              1 RES1               0.0000
     31 H31        -10.1273  10.5752  65.6746 H              1 RES1               0.0000
     32 ****       -12.7878  16.1006  69.1859 LP             1 RES1               0.0000
     33 ****       -11.8948  15.1430  68.0521 LP             1 RES1               0.0000
     34 ****       -12.0748  12.3428  62.4165 LP             1 RES1               0.0000
@<TRIPOS>BOND
    1    1    2 1     
    2    2    3 ar    
    3    3    4 ar    
    4    4    5 ar    
    5    5    6 ar    
    6    6    7 ar    
    7    7    8 1     
    8    8    9 2     
    9    8   10 am    
   10   10   11 1     
   11   11   12 1     
   12   12   13 1     
   13   13   14 ar    
   14   14   15 ar    
   15   15   16 ar    
   16   16   17 ar    
   17   17   18 ar    
   18    2    7 ar    
   19   13   18 ar    
   20    3   19 1     
   21    4   20 1     
   22    5   21 1     
   23    6   22 1     
   24   10   23 1     
   25   11   24 1     
   26   11   25 1     
   27   12   26 1     
   28   12   27 1     
   29   14   28 1     
   30   15   29 1     
   31   17   30 1     
   32   18   31 1     
   33    9   32 1     
   34    9   33 1     
   35   16   34 1     
@<TRIPOS>SUBSTRUCTURE
      1 RES1           1
@<TRIPOS>SET
LONE_PAIRS      STATIC     ATOMS    <user>   **** ""
3 32 33 34
DONOR_HYDROGENS      STATIC     ATOMS    <user>   **** ""
1 23
ATOM$BLUE        STATIC     ATOMS    COLORGROUP SYSTEM
3 32 33 34
ATOM$RED        STATIC     ATOMS    COLORGROUP SYSTEM
1 23
@<TRIPOS>COMMENT
> <Gold.Version>
2022.1.0

> <Gold.Id.Protein>
6LU7|6LU7_protein|mol2

> <Gold.Protein.RotatedTorsions>
[ 3973 1471 1470 1467 ] final  129.15 input   60.00 | X-H torsion
[ 3372  414  413  411 ] final  173.82 input   60.00 | X-H torsion
[ 4268 1114 1113 1110 ] final  127.01 input   59.99 | X-H torsion
[ 4409  924  923  921 ] final   23.58 input   59.99 | X-H torsion
[ 4183 1244 1243 1241 ] final  -43.57 input   59.99 | X-H torsion
[ 3800  178  177  174 ] final   66.17 input   60.00 | X-H torsion
[ 3793  171  170  167 ] final   85.28 input   60.00 | X-H torsion
[ 3576  185  184  181 ] final  -37.88 input   60.00 | X-H torsion
[ 3523  346  345  342 ] final  -48.60 input   60.01 | X-H torsion
[ 3515  339  338  335 ] final -107.37 input   60.00 | X-H torsion
[ 3663  154  153  150 ] final   33.88 input   60.00 | X-H torsion
[ 4280 1130 1129 1126 ] final -170.93 input   60.00 | X-H torsion

> <Gold.Protein.ActiveResidues>
 VAL20   THR21   CYS22   GLY23   THR24   THR25   THR26   LEU27   ASN28   PRO39  
 ARG40   HIS41   VAL42   CYS44   THR45   SER46   ASP48   MET49   LEU50   PRO52  
 TYR54   TYR118  ASN119  ILE136  GLY138  SER139  PHE140  LEU141  ASN142  GLY143 
 SER144  CYS145  GLY146  SER147  TYR161  HIS163  HIS164  MET165  GLU166  LEU167 
 PRO168  THR169  GLY170  VAL171  HIS172  ALA173  PHE181  PHE185  VAL186  ASP187 
 ARG188  GLN189  THR190  ALA191  GLN192  ALA193 

> <Gold.Protein.RotatedAtoms>
  -15.0322   16.9487   76.1936 H   0  0  0  0  0  0  0  0  0  0  0  0  # atno 3372 bound_to 414 
   -2.8121   20.8246   75.6332 H   0  0  0  0  0  0  0  0  0  0  0  0  # atno 3515 bound_to 339 
   -3.5491   17.2317   72.6609 H   0  0  0  0  0  0  0  0  0  0  0  0  # atno 3523 bound_to 346 
   -8.5871   25.2370   63.6427 H   0  0  0  0  0  0  0  0  0  0  0  0  # atno 3576 bound_to 185 
   -8.5778   29.1158   65.2152 H   0  0  0  0  0  0  0  0  0  0  0  0  # atno 3663 bound_to 154 
   -3.0165   23.5019   71.7201 H   0  0  0  0  0  0  0  0  0  0  0  0  # atno 3793 bound_to 171 
   -6.5005   23.9893   72.1075 H   0  0  0  0  0  0  0  0  0  0  0  0  # atno 3800 bound_to 178 
  -15.7129    7.5306   78.2089 H   0  0  0  0  0  0  0  0  0  0  0  0  # atno 3973 bound_to 1471
  -20.6958   13.3155   64.6522 H   0  0  0  0  0  0  0  0  0  0  0  0  # atno 4183 bound_to 1244
  -14.0853   15.5801   60.9804 H   0  0  0  0  0  0  0  0  0  0  0  0  # atno 4268 bound_to 1114
  -15.9492   18.6512   58.4071 H   0  0  0  0  0  0  0  0  0  0  0  0  # atno 4280 bound_to 1130
  -11.3800   15.1744   56.2357 H   0  0  0  0  0  0  0  0  0  0  0  0  # atno 4409 bound_to 924 
  -15.0958    8.0269   76.7873 LP  0  0  0  0  0  0  0  0  0  0  0  0  # atno 4696 bound_to 1471
  -15.2230    9.0726   78.0350 LP  0  0  0  0  0  0  0  0  0  0  0  0  # atno 4697 bound_to 1471
  -13.8395   17.9959   75.8345 LP  0  0  0  0  0  0  0  0  0  0  0  0  # atno 4731 bound_to 414 
  -15.2220   17.9990   74.9653 LP  0  0  0  0  0  0  0  0  0  0  0  0  # atno 4732 bound_to 414 
  -13.3200   16.4420   62.1290 LP  0  0  0  0  0  0  0  0  0  0  0  0  # atno 4733 bound_to 1114
  -12.5036   15.3234   61.2636 LP  0  0  0  0  0  0  0  0  0  0  0  0  # atno 4734 bound_to 1114
  -12.0198   15.3914   57.7161 LP  0  0  0  0  0  0  0  0  0  0  0  0  # atno 4763 bound_to 924 
  -10.4642   14.9209   57.5567 LP  0  0  0  0  0  0  0  0  0  0  0  0  # atno 4764 bound_to 924 
  -19.8549   13.7318   63.3227 LP  0  0  0  0  0  0  0  0  0  0  0  0  # atno 4771 bound_to 1244
  -20.8142   12.4104   63.3051 LP  0  0  0  0  0  0  0  0  0  0  0  0  # atno 4772 bound_to 1244
   -6.4271   22.5439   71.3634 LP  0  0  0  0  0  0  0  0  0  0  0  0  # atno 4775 bound_to 178 
   -7.6907   22.9027   72.3336 LP  0  0  0  0  0  0  0  0  0  0  0  0  # atno 4776 bound_to 178 
   -3.1951   24.9109   72.5142 LP  0  0  0  0  0  0  0  0  0  0  0  0  # atno 4779 bound_to 171 
   -1.7473   24.1557   72.5009 LP  0  0  0  0  0  0  0  0  0  0  0  0  # atno 4780 bound_to 171 
   -7.1791   25.8081   63.0602 LP  0  0  0  0  0  0  0  0  0  0  0  0  # atno 4783 bound_to 185 
   -8.1808   26.7926   63.8933 LP  0  0  0  0  0  0  0  0  0  0  0  0  # atno 4784 bound_to 185 
   -1.9277   17.1234   72.7473 LP  0  0  0  0  0  0  0  0  0  0  0  0  # atno 4785 bound_to 346 
   -2.6812   18.5045   73.1851 LP  0  0  0  0  0  0  0  0  0  0  0  0  # atno 4786 bound_to 346 
   -2.9961   22.3003   74.9724 LP  0  0  0  0  0  0  0  0  0  0  0  0  # atno 4787 bound_to 339 
   -3.6626   20.9928   74.2561 LP  0  0  0  0  0  0  0  0  0  0  0  0  # atno 4788 bound_to 339 
   -7.1910   28.3134   65.4997 LP  0  0  0  0  0  0  0  0  0  0  0  0  # atno 4797 bound_to 154 
   -7.1507   29.8692   65.0052 LP  0  0  0  0  0  0  0  0  0  0  0  0  # atno 4798 bound_to 154 

> <Gold.Score>
     Score     S(PLP)   S(hbond)     S(cho)   S(metal)  DE(clash)   DE(tors)     intcor
     57.31     -54.25       0.99       0.99       0.00       0.00       1.48       0.07

> <Gold.PLP.Fitness>
57.3072

> <Gold.PLP.PLP>
-54.2487

> <Gold.PLP.part.hbond>
-1.0000

> <Gold.PLP.part.metal>
0.0000

> <Gold.PLP.part.buried>
-7.8961

> <Gold.PLP.part.nonpolar>
-47.7337

> <Gold.PLP.part.repulsive>
0.9526

> <Gold.PLP.ligand.clash>
0.0000

> <Gold.PLP.ligand.torsion>
1.4750

> <Gold.PLP.Chemscore.Hbond>
0.9920

> <Gold.PLP.Chemscore.CHOScore>
0.9884

> <Gold.PLP.Chemscore.Metal>
0.0000

> <Gold.Chemscore.Hbonds>
donor molecule, donor type, donor heavy atom, donor atom, acceptor molecule, acceptor atom, score
      L1  H    10    23       P1  1464  0.99
      L1  C    15    29       P1  1262  0.99

> <Gold.PLP.Chemscore.Internal.Correction>
0.0673

#       Name:                unknown
#       Creating user name   williammccorkindale
#       Creation time:       Tue Jun  7 14:55:35 2022


#       File generated by GOLD software.
#

@<TRIPOS>MOLECULE
unknown|prepared_Mpro-x0426|mol2|1|dock2
    34    35     1
SMALL
NO_CHARGES


@<TRIPOS>ATOM
      1 F1          -9.8174   9.9207  65.7985 F              1 RES1               0.0000
      2 C2         -10.7246  10.8846  65.5660 C.ar           1 RES1               0.0000
      3 C3         -10.9572  11.1446  64.2059 C.ar           1 RES1               0.0000
      4 C4         -11.8523  12.0977  63.7804 C.ar           1 RES1               0.0000
      5 C5         -12.5221  12.7981  64.7551 C.ar           1 RES1               0.0000
      6 C6         -12.2952  12.5445  66.0876 C.ar           1 RES1               0.0000
      7 C7         -11.3828  11.5729  66.5190 C.ar           1 RES1               0.0000
      8 C8         -11.1864  11.3506  67.9389 C.2            1 RES1               0.0000
      9 O9         -10.1667  11.8772  68.5235 O.2            1 RES1               0.0000
     10 N10        -12.0093  10.5974  68.7935 N.am           1 RES1               0.0000
     11 C11        -11.6920  10.4525  70.2224 C.3            1 RES1               0.0000
     12 C12        -12.7811  10.9237  71.1141 C.3            1 RES1               0.0000
     13 C13        -12.8993  12.3732  71.2809 C.ar           1 RES1               0.0000
     14 C14        -13.5987  12.9027  72.3209 C.ar           1 RES1               0.0000
     15 C15        -13.7209  14.2806  72.5114 C.ar           1 RES1               0.0000
     16 N16        -13.1287  15.1100  71.6387 N.ar           1 RES1               0.0000
     17 C17        -12.4312  14.6244  70.6011 C.ar           1 RES1               0.0000
     18 C18        -12.3012  13.2726  70.3996 C.ar           1 RES1               0.0000
     19 H19        -10.4344  10.5981  63.4247 H              1 RES1               0.0000
     20 H20        -12.0466  12.3138  62.7460 H              1 RES1               0.0000
     21 H21        -13.2438  13.5659  64.4827 H              1 RES1               0.0000
     22 H22        -12.8517  13.1272  66.8152 H              1 RES1               0.0000
     23 H23        -12.8517  10.1370  68.4179 H              1 RES1               0.0000
     24 H24        -10.7067  10.8528  70.4554 H              1 RES1               0.0000
     25 H25        -11.6108   9.3343  70.3674 H              1 RES1               0.0000
     26 H26        -13.7436  10.5689  70.6648 H              1 RES1               0.0000
     27 H27        -12.6405  10.4783  72.1362 H              1 RES1               0.0000
     28 H28        -14.1029  12.2977  73.0496 H              1 RES1               0.0000
     29 H29        -14.2840  14.6655  73.3489 H              1 RES1               0.0000
     30 H30        -11.9588  15.3052  69.9048 H              1 RES1               0.0000
     31 H31        -11.7328  12.8625  69.5540 H              1 RES1               0.0000
     32 ****        -9.5210  12.4321  67.9989 LP             1 RES1               0.0000
     33 ****       -10.0206  11.7312  69.5019 LP             1 RES1               0.0000
     34 ****       -13.2081  16.0990  71.7631 LP             1 RES1               0.0000
@<TRIPOS>BOND
    1    1    2 1     
    2    2    3 ar    
    3    3    4 ar    
    4    4    5 ar    
    5    5    6 ar    
    6    6    7 ar    
    7    7    8 1     
    8    8    9 2     
    9    8   10 am    
   10   10   11 1     
   11   11   12 1     
   12   12   13 1     
   13   13   14 ar    
   14   14   15 ar    
   15   15   16 ar    
   16   16   17 ar    
   17   17   18 ar    
   18    2    7 ar    
   19   13   18 ar    
   20    3   19 1     
   21    4   20 1     
   22    5   21 1     
   23    6   22 1     
   24   10   23 1     
   25   11   24 1     
   26   11   25 1     
   27   12   26 1     
   28   12   27 1     
   29   14   28 1     
   30   15   29 1     
   31   17   30 1     
   32   18   31 1     
   33    9   32 1     
   34    9   33 1     
   35   16   34 1     
@<TRIPOS>SUBSTRUCTURE
      1 RES1           1
@<TRIPOS>SET
LONE_PAIRS      STATIC     ATOMS    <user>   **** ""
3 32 33 34
DONOR_HYDROGENS      STATIC     ATOMS    <user>   **** ""
1 23
ATOM$BLUE        STATIC     ATOMS    COLORGROUP SYSTEM
3 32 33 34
ATOM$RED        STATIC     ATOMS    COLORGROUP SYSTEM
1 23
@<TRIPOS>COMMENT
> <Gold.Version>
2022.1.0

> <Gold.Id.Protein>
6LU7|6LU7_protein|mol2

> <Gold.Protein.RotatedTorsions>
[ 3973 1471 1470 1467 ] final  -21.45 input   60.00 | X-H torsion
[ 3372  414  413  411 ] final -111.91 input   60.00 | X-H torsion
[ 4268 1114 1113 1110 ] final   23.81 input   59.99 | X-H torsion
[ 4409  924  923  921 ] final  -80.58 input   59.99 | X-H torsion
[ 4183 1244 1243 1241 ] final -136.58 input   59.99 | X-H torsion
[ 3800  178  177  174 ] final -156.90 input   60.00 | X-H torsion
[ 3793  171  170  167 ] final   95.37 input   60.00 | X-H torsion
[ 3576  185  184  181 ] final  107.11 input   60.00 | X-H torsion
[ 3523  346  345  342 ] final  -88.67 input   60.01 | X-H torsion
[ 3515  339  338  335 ] final  -34.60 input   60.00 | X-H torsion
[ 3663  154  153  150 ] final   74.74 input   60.00 | X-H torsion
[ 4280 1130 1129 1126 ] final   -5.50 input   60.00 | X-H torsion

> <Gold.Protein.ActiveResidues>
 VAL20   THR21   CYS22   GLY23   THR24   THR25   THR26   LEU27   ASN28   PRO39  
 ARG40   HIS41   VAL42   CYS44   THR45   SER46   ASP48   MET49   LEU50   PRO52  
 TYR54   TYR118  ASN119  ILE136  GLY138  SER139  PHE140  LEU141  ASN142  GLY143 
 SER144  CYS145  GLY146  SER147  TYR161  HIS163  HIS164  MET165  GLU166  LEU167 
 PRO168  THR169  GLY170  VAL171  HIS172  ALA173  PHE181  PHE185  VAL186  ASP187 
 ARG188  GLN189  THR190  ALA191  GLN192  ALA193 

> <Gold.Protein.RotatedAtoms>
  -15.5524   17.4595   75.3299 H   0  0  0  0  0  0  0  0  0  0  0  0  # atno 3372 bound_to 414 
   -3.4201   20.4936   74.7645 H   0  0  0  0  0  0  0  0  0  0  0  0  # atno 3515 bound_to 339 
   -3.0768   16.8128   72.5473 H   0  0  0  0  0  0  0  0  0  0  0  0  # atno 3523 bound_to 346 
   -7.8177   26.8465   63.7183 H   0  0  0  0  0  0  0  0  0  0  0  0  # atno 3576 bound_to 185 
   -8.3346   29.6956   65.0361 H   0  0  0  0  0  0  0  0  0  0  0  0  # atno 3663 bound_to 154 
   -2.8654   23.4367   71.7269 H   0  0  0  0  0  0  0  0  0  0  0  0  # atno 3793 bound_to 171 
   -7.6392   22.6736   72.1871 H   0  0  0  0  0  0  0  0  0  0  0  0  # atno 3800 bound_to 178 
  -14.9856    8.5040   76.8658 H   0  0  0  0  0  0  0  0  0  0  0  0  # atno 3973 bound_to 1471
  -19.8950   13.9018   63.7250 H   0  0  0  0  0  0  0  0  0  0  0  0  # atno 4183 bound_to 1244
  -13.5818   16.4530   62.0470 H   0  0  0  0  0  0  0  0  0  0  0  0  # atno 4268 bound_to 1114
  -16.1169   20.4029   59.0011 H   0  0  0  0  0  0  0  0  0  0  0  0  # atno 4280 bound_to 1130
  -12.1299   15.4226   57.4838 H   0  0  0  0  0  0  0  0  0  0  0  0  # atno 4409 bound_to 924 
  -15.4228    8.8051   78.4041 LP  0  0  0  0  0  0  0  0  0  0  0  0  # atno 4696 bound_to 1471
  -15.6284    7.3141   77.7708 LP  0  0  0  0  0  0  0  0  0  0  0  0  # atno 4697 bound_to 1471
  -14.3608   17.1534   76.3950 LP  0  0  0  0  0  0  0  0  0  0  0  0  # atno 4731 bound_to 414 
  -14.1768   18.3270   75.2746 LP  0  0  0  0  0  0  0  0  0  0  0  0  # atno 4732 bound_to 414 
  -12.4091   15.4872   61.4638 LP  0  0  0  0  0  0  0  0  0  0  0  0  # atno 4733 bound_to 1114
  -13.9216   15.3990   60.8547 LP  0  0  0  0  0  0  0  0  0  0  0  0  # atno 4734 bound_to 1114
  -10.5961   14.9645   57.7762 LP  0  0  0  0  0  0  0  0  0  0  0  0  # atno 4763 bound_to 924 
  -11.1326   15.0978   56.2397 LP  0  0  0  0  0  0  0  0  0  0  0  0  # atno 4764 bound_to 924 
  -20.5548   12.6004   63.0047 LP  0  0  0  0  0  0  0  0  0  0  0  0  # atno 4771 bound_to 1244
  -20.9208   12.9513   64.5570 LP  0  0  0  0  0  0  0  0  0  0  0  0  # atno 4772 bound_to 1244
   -6.7255   24.0179   72.2661 LP  0  0  0  0  0  0  0  0  0  0  0  0  # atno 4775 bound_to 178 
   -6.2456   22.7536   71.3507 LP  0  0  0  0  0  0  0  0  0  0  0  0  # atno 4776 bound_to 178 
   -3.3155   24.8330   72.4308 LP  0  0  0  0  0  0  0  0  0  0  0  0  # atno 4779 bound_to 171 
   -1.7791   24.2994   72.5775 LP  0  0  0  0  0  0  0  0  0  0  0  0  # atno 4780 bound_to 171 
   -8.7798   25.5394   63.8345 LP  0  0  0  0  0  0  0  0  0  0  0  0  # atno 4783 bound_to 185 
   -7.3550   25.4403   63.0429 LP  0  0  0  0  0  0  0  0  0  0  0  0  # atno 4784 bound_to 185 
   -1.7893   17.7135   72.9707 LP  0  0  0  0  0  0  0  0  0  0  0  0  # atno 4785 bound_to 346 
   -3.2952   18.3362   73.0761 LP  0  0  0  0  0  0  0  0  0  0  0  0  # atno 4786 bound_to 346 
   -2.6368   21.5512   75.7216 LP  0  0  0  0  0  0  0  0  0  0  0  0  # atno 4787 bound_to 339 
   -3.4095   22.0752   74.3818 LP  0  0  0  0  0  0  0  0  0  0  0  0  # atno 4788 bound_to 339 
   -7.8425   28.2202   65.5147 LP  0  0  0  0  0  0  0  0  0  0  0  0  # atno 4797 bound_to 154 
   -6.7441   29.3785   65.1706 LP  0  0  0  0  0  0  0  0  0  0  0  0  # atno 4798 bound_to 154 

> <Gold.Score>
     Score     S(PLP)   S(hbond)     S(cho)   S(metal)  DE(clash)   DE(tors)     intcor
     49.99     -51.54       0.64       0.00       0.00       0.00       1.77       0.07

> <Gold.PLP.Fitness>
49.9935

> <Gold.PLP.PLP>
-51.5402

> <Gold.PLP.part.hbond>
-0.9571

> <Gold.PLP.part.metal>
0.0000

> <Gold.PLP.part.buried>
-7.9586

> <Gold.PLP.part.nonpolar>
-44.1606

> <Gold.PLP.part.repulsive>
0.2795

> <Gold.PLP.ligand.clash>
0.0000

> <Gold.PLP.ligand.torsion>
1.7680

> <Gold.PLP.Chemscore.Hbond>
0.6406

> <Gold.PLP.Chemscore.CHOScore>
0.0000

> <Gold.PLP.Chemscore.Metal>
0.0000

> <Gold.Chemscore.Hbonds>
donor molecule, donor type, donor heavy atom, donor atom, acceptor molecule, acceptor atom, score
      L1  H    10    23       P1  1284  0.64

> <Gold.PLP.Chemscore.Internal.Correction>
0.0673

#       Name:                unknown
#       Creating user name   williammccorkindale
#       Creation time:       Tue Jun  7 14:55:35 2022


#       File generated by GOLD software.
#

@<TRIPOS>MOLECULE
unknown|prepared_Mpro-x0104|mol2|1|dock2
    31    32     1
SMALL
NO_CHARGES


@<TRIPOS>ATOM
      1 C1         -11.1249  11.6395  63.8248 C.3            1 RES1               0.0000
      2 C2         -11.7296  12.6694  64.7142 C.2            1 RES1               0.0000
      3 O3         -12.9032  12.5956  65.1274 O.2            1 RES1               0.0000
      4 N4         -10.9698  13.8004  65.1329 N.am           1 RES1               0.0000
      5 C5         -11.5602  14.8013  65.9975 C.3            1 RES1               0.0000
      6 C6         -11.7905  14.1730  67.3501 C.3            1 RES1               0.0000
      7 C7         -11.5545  15.1171  68.4587 C.2            1 RES1               0.0000
      8 C8         -10.9395  16.3497  68.4618 C.2            1 RES1               0.0000
      9 N9         -10.9584  16.8410  69.7083 N.pl3          1 RES1               0.0000
     10 C10        -11.5745  15.9686  70.5575 C.ar           1 RES1               0.0000
     11 C11        -11.8360  16.0189  71.9082 C.ar           1 RES1               0.0000
     12 C12        -12.4910  14.9503  72.4828 C.ar           1 RES1               0.0000
     13 C13        -12.8845  13.8501  71.7496 C.ar           1 RES1               0.0000
     14 F14        -13.5219  12.8311  72.3590 F              1 RES1               0.0000
     15 C15        -12.6014  13.8462  70.4041 C.ar           1 RES1               0.0000
     16 C16        -11.9427  14.8927  69.7612 C.ar           1 RES1               0.0000
     17 H17        -10.8140  12.1080  62.8725 H              1 RES1               0.0000
     18 H18        -11.8947  10.8379  63.6602 H              1 RES1               0.0000
     19 H19        -10.2594  11.1330  64.2984 H              1 RES1               0.0000
     20 H20         -9.9867  13.8791  64.7982 H              1 RES1               0.0000
     21 H21        -12.5137  15.2012  65.6029 H              1 RES1               0.0000
     22 H22        -10.8597  15.6647  66.0546 H              1 RES1               0.0000
     23 H23        -11.1515  13.2822  67.5087 H              1 RES1               0.0000
     24 H24        -12.8397  13.7917  67.3531 H              1 RES1               0.0000
     25 H25        -10.5293  16.8041  67.5910 H              1 RES1               0.0000
     26 H26        -10.5550  17.7562  69.9669 H              1 RES1               0.0000
     27 H27        -11.5523  16.8488  72.5272 H              1 RES1               0.0000
     28 H28        -12.7093  14.9701  73.5500 H              1 RES1               0.0000
     29 H29        -12.8978  12.9912  69.7839 H              1 RES1               0.0000
     30 ****       -13.4787  11.8218  64.8627 LP             1 RES1               0.0000
     31 ****       -13.2693  13.3101  65.7235 LP             1 RES1               0.0000
@<TRIPOS>BOND
    1    1    2 1     
    2    2    3 2     
    3    2    4 am    
    4    4    5 1     
    5    5    6 1     
    6    6    7 1     
    7    7    8 2     
    8    8    9 1     
    9    9   10 1     
   10   10   11 ar    
   11   11   12 ar    
   12   12   13 ar    
   13   13   14 1     
   14   13   15 ar    
   15   15   16 ar    
   16   16    7 1     
   17   10   16 ar    
   18    1   17 1     
   19    1   18 1     
   20    1   19 1     
   21    4   20 1     
   22    5   21 1     
   23    5   22 1     
   24    6   23 1     
   25    6   24 1     
   26    8   25 1     
   27    9   26 1     
   28   11   27 1     
   29   12   28 1     
   30   15   29 1     
   31    3   30 1     
   32    3   31 1     
@<TRIPOS>SUBSTRUCTURE
      1 RES1           1
@<TRIPOS>SET
LONE_PAIRS      STATIC     ATOMS    <user>   **** ""
2 30 31
DONOR_HYDROGENS      STATIC     ATOMS    <user>   **** ""
2 20 26
ATOM$BLUE        STATIC     ATOMS    COLORGROUP SYSTEM
2 30 31
ATOM$RED        STATIC     ATOMS    COLORGROUP SYSTEM
2 20 26
@<TRIPOS>COMMENT
> <Gold.Version>
2022.1.0

> <Gold.Id.Protein>
6LU7|6LU7_protein|mol2

> <Gold.Protein.RotatedTorsions>
[ 3973 1471 1470 1467 ] final -113.48 input   60.00 | X-H torsion
[ 3372  414  413  411 ] final   39.71 input   60.00 | X-H torsion
[ 4268 1114 1113 1110 ] final  117.01 input   59.99 | X-H torsion
[ 4409  924  923  921 ] final -148.05 input   59.99 | X-H torsion
[ 4183 1244 1243 1241 ] final   58.61 input   59.99 | X-H torsion
[ 3800  178  177  174 ] final   22.07 input   60.00 | X-H torsion
[ 3793  171  170  167 ] final  -43.25 input   60.00 | X-H torsion
[ 3576  185  184  181 ] final -160.77 input   60.00 | X-H torsion
[ 3523  346  345  342 ] final   27.16 input   60.01 | X-H torsion
[ 3515  339  338  335 ] final  124.38 input   60.00 | X-H torsion
[ 3663  154  153  150 ] final  124.84 input   60.00 | X-H torsion
[ 4280 1130 1129 1126 ] final   40.65 input   60.00 | X-H torsion

> <Gold.Protein.ActiveResidues>
 VAL20   THR21   CYS22   GLY23   THR24   THR25   THR26   LEU27   ASN28   PRO39  
 ARG40   HIS41   VAL42   CYS44   THR45   SER46   ASP48   MET49   LEU50   PRO52  
 TYR54   TYR118  ASN119  ILE136  GLY138  SER139  PHE140  LEU141  ASN142  GLY143 
 SER144  CYS145  GLY146  SER147  TYR161  HIS163  HIS164  MET165  GLU166  LEU167 
 PRO168  THR169  GLY170  VAL171  HIS172  ALA173  PHE181  PHE185  VAL186  ASP187 
 ARG188  GLN189  THR190  ALA191  GLN192  ALA193 

> <Gold.Protein.RotatedAtoms>
  -13.8985   18.1322   75.6577 H   0  0  0  0  0  0  0  0  0  0  0  0  # atno 3372 bound_to 414 
   -3.0711   22.2987   74.8598 H   0  0  0  0  0  0  0  0  0  0  0  0  # atno 3515 bound_to 339 
   -3.3437   18.2907   73.0584 H   0  0  0  0  0  0  0  0  0  0  0  0  # atno 3523 bound_to 346 
   -7.1729   25.8536   63.0733 H   0  0  0  0  0  0  0  0  0  0  0  0  # atno 3576 bound_to 185 
   -7.6032   29.9915   64.9584 H   0  0  0  0  0  0  0  0  0  0  0  0  # atno 3663 bound_to 154 
   -3.0766   24.9551   72.5740 H   0  0  0  0  0  0  0  0  0  0  0  0  # atno 3793 bound_to 171 
   -6.1013   23.6090   71.6715 H   0  0  0  0  0  0  0  0  0  0  0  0  # atno 3800 bound_to 178 
  -15.2383    9.0518   78.0704 H   0  0  0  0  0  0  0  0  0  0  0  0  # atno 3973 bound_to 1471
  -20.9439   12.3792   63.5639 H   0  0  0  0  0  0  0  0  0  0  0  0  # atno 4183 bound_to 1244
  -14.1547   15.6945   61.0738 H   0  0  0  0  0  0  0  0  0  0  0  0  # atno 4268 bound_to 1114
  -15.7609   20.0446   59.5336 H   0  0  0  0  0  0  0  0  0  0  0  0  # atno 4280 bound_to 1130
  -11.3265   15.1923   58.1022 H   0  0  0  0  0  0  0  0  0  0  0  0  # atno 4409 bound_to 924 
  -15.7138    7.4994   78.1782 LP  0  0  0  0  0  0  0  0  0  0  0  0  # atno 4696 bound_to 1471
  -15.0829    8.0681   76.7835 LP  0  0  0  0  0  0  0  0  0  0  0  0  # atno 4697 bound_to 1471
  -15.3743   17.8400   75.0373 LP  0  0  0  0  0  0  0  0  0  0  0  0  # atno 4731 bound_to 414 
  -14.8289   16.9630   76.3022 LP  0  0  0  0  0  0  0  0  0  0  0  0  # atno 4732 bound_to 414 
  -13.1605   16.4065   62.1473 LP  0  0  0  0  0  0  0  0  0  0  0  0  # atno 4733 bound_to 1114
  -12.5931   15.2436   61.1513 LP  0  0  0  0  0  0  0  0  0  0  0  0  # atno 4734 bound_to 1114
  -10.4878   14.9130   56.7360 LP  0  0  0  0  0  0  0  0  0  0  0  0  # atno 4763 bound_to 924 
  -12.0502   15.3812   56.6570 LP  0  0  0  0  0  0  0  0  0  0  0  0  # atno 4764 bound_to 924 
  -20.5146   13.5410   64.6194 LP  0  0  0  0  0  0  0  0  0  0  0  0  # atno 4771 bound_to 1244
  -19.9047   13.5441   63.1046 LP  0  0  0  0  0  0  0  0  0  0  0  0  # atno 4772 bound_to 1244
   -7.0320   22.2753   71.6143 LP  0  0  0  0  0  0  0  0  0  0  0  0  # atno 4775 bound_to 178 
   -7.4878   23.5543   72.5216 LP  0  0  0  0  0  0  0  0  0  0  0  0  # atno 4776 bound_to 178 
   -1.7423   24.0349   72.4299 LP  0  0  0  0  0  0  0  0  0  0  0  0  # atno 4779 bound_to 171 
   -3.1396   23.5682   71.7252 LP  0  0  0  0  0  0  0  0  0  0  0  0  # atno 4780 bound_to 171 
   -8.2216   26.7748   63.9097 LP  0  0  0  0  0  0  0  0  0  0  0  0  # atno 4783 bound_to 185 
   -8.5626   25.2049   63.6172 LP  0  0  0  0  0  0  0  0  0  0  0  0  # atno 4784 bound_to 185 
   -3.0149   16.7839   72.5393 LP  0  0  0  0  0  0  0  0  0  0  0  0  # atno 4785 bound_to 346 
   -1.8009   17.7774   72.9928 LP  0  0  0  0  0  0  0  0  0  0  0  0  # atno 4786 bound_to 346 
   -3.6417   20.8742   74.3184 LP  0  0  0  0  0  0  0  0  0  0  0  0  # atno 4787 bound_to 339 
   -2.7561   20.9344   75.6890 LP  0  0  0  0  0  0  0  0  0  0  0  0  # atno 4788 bound_to 339 
   -8.4772   28.6773   65.3548 LP  0  0  0  0  0  0  0  0  0  0  0  0  # atno 4797 bound_to 154 
   -6.8460   28.6234   65.4088 LP  0  0  0  0  0  0  0  0  0  0  0  0  # atno 4798 bound_to 154 

> <Gold.Score>
     Score     S(PLP)   S(hbond)     S(cho)   S(metal)  DE(clash)   DE(tors)     intcor
     44.57     -45.43       0.00       0.00       0.00       0.00       0.44       0.01

> <Gold.PLP.Fitness>
44.5659

> <Gold.PLP.PLP>
-45.4308

> <Gold.PLP.part.hbond>
-0.6329

> <Gold.PLP.part.metal>
0.0000

> <Gold.PLP.part.buried>
-7.1626

> <Gold.PLP.part.nonpolar>
-38.3531

> <Gold.PLP.part.repulsive>
0.2086

> <Gold.PLP.ligand.clash>
0.0000

> <Gold.PLP.ligand.torsion>
0.4392

> <Gold.PLP.Chemscore.Hbond>
0.0000

> <Gold.PLP.Chemscore.CHOScore>
0.0000

> <Gold.PLP.Chemscore.Metal>
0.0000

> <Gold.PLP.Chemscore.Internal.Correction>
0.0134

#       Name:                unknown
#       Creating user name   williammccorkindale
#       Creation time:       Tue Jun  7 14:55:35 2022


#       File generated by GOLD software.
#

@<TRIPOS>MOLECULE
unknown|prepared_Mpro-x0104|mol2|1|dock1
    31    32     1
SMALL
NO_CHARGES


@<TRIPOS>ATOM
      1 C1          -7.9838  19.8034  66.3993 C.3            1 RES1               0.0000
      2 C2          -8.6833  18.5126  66.6483 C.2            1 RES1               0.0000
      3 O3          -8.8600  17.6606  65.7559 O.2            1 RES1               0.0000
      4 N4          -9.1860  18.2002  67.9450 N.am           1 RES1               0.0000
      5 C5          -9.8665  16.9443  68.1848 C.3            1 RES1               0.0000
      6 C6         -10.5035  17.0116  69.5512 C.3            1 RES1               0.0000
      7 C7         -11.3864  15.8608  69.8198 C.2            1 RES1               0.0000
      8 C8         -11.8708  14.8931  68.9675 C.2            1 RES1               0.0000
      9 N9         -12.6406  14.0465  69.6647 N.pl3          1 RES1               0.0000
     10 C10        -12.6919  14.4162  70.9771 C.ar           1 RES1               0.0000
     11 C11        -13.3369  13.8767  72.0672 C.ar           1 RES1               0.0000
     12 C12        -13.1848  14.5021  73.2865 C.ar           1 RES1               0.0000
     13 C13        -12.4146  15.6363  73.4388 C.ar           1 RES1               0.0000
     14 F14        -12.2982  16.2100  74.6526 F              1 RES1               0.0000
     15 C15        -11.7897  16.1373  72.3211 C.ar           1 RES1               0.0000
     16 C16        -11.9017  15.5547  71.0601 C.ar           1 RES1               0.0000
     17 H17         -8.6672  20.6443  66.6204 H              1 RES1               0.0000
     18 H18         -7.6533  19.8095  65.3256 H              1 RES1               0.0000
     19 H19         -7.0568  19.9003  67.0003 H              1 RES1               0.0000
     20 H20         -9.0472  18.8998  68.7039 H              1 RES1               0.0000
     21 H21         -9.1886  16.0712  68.1299 H              1 RES1               0.0000
     22 H22        -10.6232  16.8026  67.3805 H              1 RES1               0.0000
     23 H23        -11.0897  17.9410  69.6911 H              1 RES1               0.0000
     24 H24         -9.6702  17.0702  70.2919 H              1 RES1               0.0000
     25 H25        -11.6444  14.8588  67.9279 H              1 RES1               0.0000
     26 H26        -13.1198  13.2334  69.2446 H              1 RES1               0.0000
     27 H27        -13.9491  12.9970  72.0068 H              1 RES1               0.0000
     28 H28        -13.6853  14.0911  74.1626 H              1 RES1               0.0000
     29 H29        -11.1668  17.0371  72.3983 H              1 RES1               0.0000
     30 ****        -8.5265  17.8312  64.8287 LP             1 RES1               0.0000
     31 ****        -9.3353  16.8065  65.9671 LP             1 RES1               0.0000
@<TRIPOS>BOND
    1    1    2 1     
    2    2    3 2     
    3    2    4 am    
    4    4    5 1     
    5    5    6 1     
    6    6    7 1     
    7    7    8 2     
    8    8    9 1     
    9    9   10 1     
   10   10   11 ar    
   11   11   12 ar    
   12   12   13 ar    
   13   13   14 1     
   14   13   15 ar    
   15   15   16 ar    
   16   16    7 1     
   17   10   16 ar    
   18    1   17 1     
   19    1   18 1     
   20    1   19 1     
   21    4   20 1     
   22    5   21 1     
   23    5   22 1     
   24    6   23 1     
   25    6   24 1     
   26    8   25 1     
   27    9   26 1     
   28   11   27 1     
   29   12   28 1     
   30   15   29 1     
   31    3   30 1     
   32    3   31 1     
@<TRIPOS>SUBSTRUCTURE
      1 RES1           1
@<TRIPOS>SET
LONE_PAIRS      STATIC     ATOMS    <user>   **** ""
2 30 31
DONOR_HYDROGENS      STATIC     ATOMS    <user>   **** ""
2 20 26
ATOM$BLUE        STATIC     ATOMS    COLORGROUP SYSTEM
2 30 31
ATOM$RED        STATIC     ATOMS    COLORGROUP SYSTEM
2 20 26
@<TRIPOS>COMMENT
> <Gold.Version>
2022.1.0

> <Gold.Id.Protein>
6LU7|6LU7_protein|mol2

> <Gold.Protein.RotatedTorsions>
[ 3973 1471 1470 1467 ] final  148.34 input   60.00 | X-H torsion
[ 3372  414  413  411 ] final   51.54 input   60.00 | X-H torsion
[ 4268 1114 1113 1110 ] final  -63.14 input   59.99 | X-H torsion
[ 4409  924  923  921 ] final -145.29 input   59.99 | X-H torsion
[ 4183 1244 1243 1241 ] final   31.34 input   59.99 | X-H torsion
[ 3800  178  177  174 ] final   33.43 input   60.00 | X-H torsion
[ 3793  171  170  167 ] final  -31.96 input   60.00 | X-H torsion
[ 3576  185  184  181 ] final  145.48 input   60.00 | X-H torsion
[ 3523  346  345  342 ] final   53.19 input   60.01 | X-H torsion
[ 3515  339  338  335 ] final  -56.31 input   60.00 | X-H torsion
[ 3663  154  153  150 ] final  -77.14 input   60.00 | X-H torsion
[ 4280 1130 1129 1126 ] final -119.12 input   60.00 | X-H torsion

> <Gold.Protein.ActiveResidues>
 VAL20   THR21   CYS22   GLY23   THR24   THR25   THR26   LEU27   ASN28   PRO39  
 ARG40   HIS41   VAL42   CYS44   THR45   SER46   ASP48   MET49   LEU50   PRO52  
 TYR54   TYR118  ASN119  ILE136  GLY138  SER139  PHE140  LEU141  ASN142  GLY143 
 SER144  CYS145  GLY146  SER147  TYR161  HIS163  HIS164  MET165  GLU166  LEU167 
 PRO168  THR169  GLY170  VAL171  HIS172  ALA173  PHE181  PHE185  VAL186  ASP187 
 ARG188  GLN189  THR190  ALA191  GLN192  ALA193 

> <Gold.Protein.RotatedAtoms>
  -13.8514   18.0188   75.8066 H   0  0  0  0  0  0  0  0  0  0  0  0  # atno 3372 bound_to 414 
   -3.2376   20.4448   75.0622 H   0  0  0  0  0  0  0  0  0  0  0  0  # atno 3515 bound_to 339 
   -2.9751   18.4725   73.1530 H   0  0  0  0  0  0  0  0  0  0  0  0  # atno 3523 bound_to 346 
   -7.3464   26.6163   63.3967 H   0  0  0  0  0  0  0  0  0  0  0  0  # atno 3576 bound_to 185 
   -7.3281   28.2616   65.5155 H   0  0  0  0  0  0  0  0  0  0  0  0  # atno 3663 bound_to 154 
   -3.2252   24.8879   72.4885 H   0  0  0  0  0  0  0  0  0  0  0  0  # atno 3793 bound_to 171 
   -6.1678   23.7444   71.7791 H   0  0  0  0  0  0  0  0  0  0  0  0  # atno 3800 bound_to 178 
  -15.7163    7.7654   78.4146 H   0  0  0  0  0  0  0  0  0  0  0  0  # atno 3973 bound_to 1471
  -21.0500   12.4645   63.9838 H   0  0  0  0  0  0  0  0  0  0  0  0  # atno 4183 bound_to 1244
  -12.4533   15.8686   61.8357 H   0  0  0  0  0  0  0  0  0  0  0  0  # atno 4268 bound_to 1114
  -16.3173   19.2383   57.9723 H   0  0  0  0  0  0  0  0  0  0  0  0  # atno 4280 bound_to 1130
  -11.3696   15.2052   58.0989 H   0  0  0  0  0  0  0  0  0  0  0  0  # atno 4409 bound_to 924 
  -15.2036    7.7435   76.8703 LP  0  0  0  0  0  0  0  0  0  0  0  0  # atno 4696 bound_to 1471
  -15.1118    9.1196   77.7448 LP  0  0  0  0  0  0  0  0  0  0  0  0  # atno 4697 bound_to 1471
  -15.2490   17.9745   74.9741 LP  0  0  0  0  0  0  0  0  0  0  0  0  # atno 4731 bound_to 414 
  -15.0016   16.9427   76.2154 LP  0  0  0  0  0  0  0  0  0  0  0  0  # atno 4732 bound_to 414 
  -13.4518   15.1557   60.7667 LP  0  0  0  0  0  0  0  0  0  0  0  0  # atno 4733 bound_to 1114
  -14.0154   16.3191   61.7645 LP  0  0  0  0  0  0  0  0  0  0  0  0  # atno 4734 bound_to 1114
  -10.4686   14.9080   56.7769 LP  0  0  0  0  0  0  0  0  0  0  0  0  # atno 4763 bound_to 924 
  -12.0259   15.3733   56.6194 LP  0  0  0  0  0  0  0  0  0  0  0  0  # atno 4764 bound_to 924 
  -20.2326   13.8078   64.4028 LP  0  0  0  0  0  0  0  0  0  0  0  0  # atno 4771 bound_to 1244
  -20.0798   13.1914   62.8983 LP  0  0  0  0  0  0  0  0  0  0  0  0  # atno 4772 bound_to 1244
   -6.8704   22.2989   71.5240 LP  0  0  0  0  0  0  0  0  0  0  0  0  # atno 4775 bound_to 178 
   -7.5823   23.3944   72.5037 LP  0  0  0  0  0  0  0  0  0  0  0  0  # atno 4776 bound_to 178 
   -1.7533   24.1951   72.5227 LP  0  0  0  0  0  0  0  0  0  0  0  0  # atno 4779 bound_to 171 
   -2.9789   23.4757   71.7185 LP  0  0  0  0  0  0  0  0  0  0  0  0  # atno 4780 bound_to 171 
   -8.7738   26.1333   64.0109 LP  0  0  0  0  0  0  0  0  0  0  0  0  # atno 4783 bound_to 185 
   -7.8357   25.0782   63.1903 LP  0  0  0  0  0  0  0  0  0  0  0  0  # atno 4784 bound_to 185 
   -3.3771   17.0001   72.5886 LP  0  0  0  0  0  0  0  0  0  0  0  0  # atno 4785 bound_to 346 
   -1.8099   17.3782   72.8483 LP  0  0  0  0  0  0  0  0  0  0  0  0  # atno 4786 bound_to 346 
   -2.6714   21.8776   75.5860 LP  0  0  0  0  0  0  0  0  0  0  0  0  # atno 4787 bound_to 339 
   -3.5587   21.7980   74.2175 LP  0  0  0  0  0  0  0  0  0  0  0  0  # atno 4788 bound_to 339 
   -7.0311   29.7874   65.0339 LP  0  0  0  0  0  0  0  0  0  0  0  0  # atno 4797 bound_to 154 
   -8.5691   29.2554   65.1686 LP  0  0  0  0  0  0  0  0  0  0  0  0  # atno 4798 bound_to 154 

> <Gold.Score>
     Score     S(PLP)   S(hbond)     S(cho)   S(metal)  DE(clash)   DE(tors)     intcor
     50.33     -47.77       0.98       0.00       0.00       0.00       0.20       0.03

> <Gold.PLP.Fitness>
50.3251

> <Gold.PLP.PLP>
-47.7660

> <Gold.PLP.part.hbond>
-1.6352

> <Gold.PLP.part.metal>
0.0000

> <Gold.PLP.part.buried>
-5.1780

> <Gold.PLP.part.nonpolar>
-41.4468

> <Gold.PLP.part.repulsive>
0.0413

> <Gold.PLP.ligand.clash>
0.0000

> <Gold.PLP.ligand.torsion>
0.1970

> <Gold.PLP.Chemscore.Hbond>
0.9760

> <Gold.PLP.Chemscore.CHOScore>
0.0000

> <Gold.PLP.Chemscore.Metal>
0.0000

> <Gold.Chemscore.Hbonds>
donor molecule, donor type, donor heavy atom, donor atom, acceptor molecule, acceptor atom, score
      P1  H  1105  4261       L1     3  0.98

> <Gold.PLP.Chemscore.Internal.Correction>
0.0252

#       Name:                unknown
#       Creating user name   williammccorkindale
#       Creation time:       Tue Jun  7 14:55:36 2022


#       File generated by GOLD software.
#

@<TRIPOS>MOLECULE
unknown|prepared_Mpro-x0195|mol2|1|dock1
    30    31     1
SMALL
NO_CHARGES


@<TRIPOS>ATOM
      1 C1         -11.6766  15.9825  70.7069 C.3            1 RES1               0.0000
      2 N2         -12.5816  14.9237  71.0400 N.pl3          1 RES1               0.0000
      3 C3         -13.6689  15.2030  71.9755 C.3            1 RES1               0.0000
      4 C4         -14.3997  13.9369  72.3568 C.3            1 RES1               0.0000
      5 C5         -13.4615  12.7717  72.5003 C.3            1 RES1               0.0000
      6 C6         -12.8535  12.5082  71.1713 C.ar           1 RES1               0.0000
      7 C7         -12.7044  11.2681  70.6324 C.ar           1 RES1               0.0000
      8 C8         -12.1220  11.1437  69.3891 C.ar           1 RES1               0.0000
      9 C9         -11.6891  12.2464  68.6832 C.ar           1 RES1               0.0000
     10 C10        -11.8417  13.4965  69.2315 C.ar           1 RES1               0.0000
     11 C11        -12.4201  13.6244  70.4669 C.ar           1 RES1               0.0000
     12 S12        -10.9527  12.1113  67.1155 S.o2           1 RES1               0.0000
     13 O13        -12.0014  11.9999  66.0604 O.2            1 RES1               0.0000
     14 O14        -10.1481  13.3589  66.8140 O.2            1 RES1               0.0000
     15 N15         -9.8988  10.7477  67.0625 N.3            1 RES1               0.0000
     16 H16        -11.4100  16.5131  71.6452 H              1 RES1               0.0000
     17 H17        -12.1474  16.7355  70.0150 H              1 RES1               0.0000
     18 H18        -10.7298  15.6341  70.2572 H              1 RES1               0.0000
     19 H19        -14.3983  15.9082  71.5297 H              1 RES1               0.0000
     20 H20        -13.2958  15.6597  72.9121 H              1 RES1               0.0000
     21 H21        -14.9499  14.0851  73.2918 H              1 RES1               0.0000
     22 H22        -15.1304  13.7038  71.5617 H              1 RES1               0.0000
     23 H23        -14.0290  11.9080  72.8919 H              1 RES1               0.0000
     24 H24        -12.6400  13.0817  73.1795 H              1 RES1               0.0000
     25 H25        -13.0524  10.4216  71.2070 H              1 RES1               0.0000
     26 H26        -12.0092  10.1577  68.9724 H              1 RES1               0.0000
     27 H27        -11.5199  14.4037  68.7257 H              1 RES1               0.0000
     28 H28         -9.1136  10.8893  66.4218 H              1 RES1               0.0000
     29 H29        -10.4661   9.9415  66.7206 H              1 RES1               0.0000
     30 ****        -9.5164  10.5932  67.9734 LP             1 RES1               0.0000
@<TRIPOS>BOND
    1    1    2 1     
    2    2    3 1     
    3    3    4 1     
    4    4    5 1     
    5    5    6 1     
    6    6    7 ar    
    7    7    8 ar    
    8    8    9 ar    
    9    9   10 ar    
   10   10   11 ar    
   11    9   12 1     
   12   12   13 2     
   13   12   14 2     
   14   12   15 1     
   15   11    2 1     
   16    6   11 ar    
   17    1   16 1     
   18    1   17 1     
   19    1   18 1     
   20    3   19 1     
   21    3   20 1     
   22    4   21 1     
   23    4   22 1     
   24    5   23 1     
   25    5   24 1     
   26    7   25 1     
   27    8   26 1     
   28   10   27 1     
   29   15   28 1     
   30   15   29 1     
   31   15   30 1     
@<TRIPOS>SUBSTRUCTURE
      1 RES1           1
@<TRIPOS>SET
LONE_PAIRS      STATIC     ATOMS    <user>   **** ""
3 13 14 30
DONOR_HYDROGENS      STATIC     ATOMS    <user>   **** ""
2 28 29
ATOM$BLUE        STATIC     ATOMS    COLORGROUP SYSTEM
3 13 14 30
ATOM$RED        STATIC     ATOMS    COLORGROUP SYSTEM
2 28 29
@<TRIPOS>COMMENT
> <Gold.Version>
2022.1.0

> <Gold.Id.Protein>
6LU7|6LU7_protein|mol2

> <Gold.Protein.RotatedTorsions>
[ 3973 1471 1470 1467 ] final -128.05 input   60.00 | X-H torsion
[ 3372  414  413  411 ] final   45.34 input   60.00 | X-H torsion
[ 4268 1114 1113 1110 ] final   75.81 input   59.99 | X-H torsion
[ 4409  924  923  921 ] final   11.56 input   59.99 | X-H torsion
[ 4183 1244 1243 1241 ] final  151.40 input   59.99 | X-H torsion
[ 3800  178  177  174 ] final   45.83 input   60.00 | X-H torsion
[ 3793  171  170  167 ] final -170.37 input   60.00 | X-H torsion
[ 3576  185  184  181 ] final  105.46 input   60.00 | X-H torsion
[ 3523  346  345  342 ] final -158.04 input   60.01 | X-H torsion
[ 3515  339  338  335 ] final  -18.45 input   60.00 | X-H torsion
[ 3663  154  153  150 ] final  103.55 input   60.00 | X-H torsion
[ 4280 1130 1129 1126 ] final   12.05 input   60.00 | X-H torsion

> <Gold.Protein.ActiveResidues>
 VAL20   THR21   CYS22   GLY23   THR24   THR25   THR26   LEU27   ASN28   PRO39  
 ARG40   HIS41   VAL42   CYS44   THR45   SER46   ASP48   MET49   LEU50   PRO52  
 TYR54   TYR118  ASN119  ILE136  GLY138  SER139  PHE140  LEU141  ASN142  GLY143 
 SER144  CYS145  GLY146  SER147  TYR161  HIS163  HIS164  MET165  GLU166  LEU167 
 PRO168  THR169  GLY170  VAL171  HIS172  ALA173  PHE181  PHE185  VAL186  ASP187 
 ARG188  GLN189  THR190  ALA191  GLN192  ALA193 

> <Gold.Protein.RotatedAtoms>
  -13.8717   18.0805   75.7289 H   0  0  0  0  0  0  0  0  0  0  0  0  # atno 3372 bound_to 414 
   -3.5329   20.6118   74.5585 H   0  0  0  0  0  0  0  0  0  0  0  0  # atno 3515 bound_to 339 
   -2.0385   17.0006   72.6968 H   0  0  0  0  0  0  0  0  0  0  0  0  # atno 3523 bound_to 346 
   -7.8414   26.8478   63.7313 H   0  0  0  0  0  0  0  0  0  0  0  0  # atno 3576 bound_to 185 
   -7.9454   29.9419   64.9664 H   0  0  0  0  0  0  0  0  0  0  0  0  # atno 3663 bound_to 154 
   -1.7594   23.9394   72.3647 H   0  0  0  0  0  0  0  0  0  0  0  0  # atno 3793 bound_to 171 
   -6.2719   23.8653   71.9033 H   0  0  0  0  0  0  0  0  0  0  0  0  # atno 3800 bound_to 178 
  -15.3326    8.9427   78.2589 H   0  0  0  0  0  0  0  0  0  0  0  0  # atno 3973 bound_to 1471
  -20.0837   13.1934   62.9039 H   0  0  0  0  0  0  0  0  0  0  0  0  # atno 4183 bound_to 1244
  -14.1585   16.1554   61.5445 H   0  0  0  0  0  0  0  0  0  0  0  0  # atno 4268 bound_to 1114
  -15.9796   20.3272   59.2399 H   0  0  0  0  0  0  0  0  0  0  0  0  # atno 4280 bound_to 1130
  -11.5636   15.2303   56.2752 H   0  0  0  0  0  0  0  0  0  0  0  0  # atno 4409 bound_to 924 
  -15.6792    7.3784   77.9750 LP  0  0  0  0  0  0  0  0  0  0  0  0  # atno 4696 bound_to 1471
  -15.0225    8.2990   76.7969 LP  0  0  0  0  0  0  0  0  0  0  0  0  # atno 4697 bound_to 1471
  -15.3179   17.9054   75.0037 LP  0  0  0  0  0  0  0  0  0  0  0  0  # atno 4731 bound_to 414 
  -14.9122   16.9496   76.2640 LP  0  0  0  0  0  0  0  0  0  0  0  0  # atno 4732 bound_to 414 
  -12.5999   16.0810   62.0063 LP  0  0  0  0  0  0  0  0  0  0  0  0  # atno 4733 bound_to 1114
  -13.1500   15.1050   60.8183 LP  0  0  0  0  0  0  0  0  0  0  0  0  # atno 4734 bound_to 1114
  -11.8935   15.3561   57.8637 LP  0  0  0  0  0  0  0  0  0  0  0  0  # atno 4763 bound_to 924 
  -10.4055   14.8998   57.3695 LP  0  0  0  0  0  0  0  0  0  0  0  0  # atno 4764 bound_to 924 
  -21.0522   12.4579   63.9851 LP  0  0  0  0  0  0  0  0  0  0  0  0  # atno 4771 bound_to 1244
  -20.2332   13.8073   64.4035 LP  0  0  0  0  0  0  0  0  0  0  0  0  # atno 4772 bound_to 1244
   -6.6944   22.3625   71.4438 LP  0  0  0  0  0  0  0  0  0  0  0  0  # atno 4775 bound_to 178 
   -7.6536   23.2090   72.4587 LP  0  0  0  0  0  0  0  0  0  0  0  0  # atno 4776 bound_to 178 
   -3.2316   23.6392   71.7399 LP  0  0  0  0  0  0  0  0  0  0  0  0  # atno 4779 bound_to 171 
   -2.9770   24.9869   72.6261 LP  0  0  0  0  0  0  0  0  0  0  0  0  # atno 4780 bound_to 171 
   -8.7718   25.5159   63.8231 LP  0  0  0  0  0  0  0  0  0  0  0  0  # atno 4783 bound_to 185 
   -7.3392   25.4624   63.0411 LP  0  0  0  0  0  0  0  0  0  0  0  0  # atno 4784 bound_to 185 
   -2.5098   18.4782   73.1892 LP  0  0  0  0  0  0  0  0  0  0  0  0  # atno 4785 bound_to 346 
   -3.6204   17.3824   72.7071 LP  0  0  0  0  0  0  0  0  0  0  0  0  # atno 4786 bound_to 346 
   -2.6589   21.2892   75.7524 LP  0  0  0  0  0  0  0  0  0  0  0  0  # atno 4787 bound_to 339 
   -3.2738   22.2183   74.5584 LP  0  0  0  0  0  0  0  0  0  0  0  0  # atno 4788 bound_to 339 
   -8.2615   28.4181   65.4422 LP  0  0  0  0  0  0  0  0  0  0  0  0  # atno 4797 bound_to 154 
   -6.7170   28.9325   65.3133 LP  0  0  0  0  0  0  0  0  0  0  0  0  # atno 4798 bound_to 154 

> <Gold.Score>
     Score     S(PLP)   S(hbond)     S(cho)   S(metal)  DE(clash)   DE(tors)     intcor
     40.37     -40.45       0.00       0.00       0.00       0.00       1.13       2.19

> <Gold.PLP.Fitness>
40.3705

> <Gold.PLP.PLP>
-40.4475

> <Gold.PLP.part.hbond>
-0.7467

> <Gold.PLP.part.metal>
0.0000

> <Gold.PLP.part.buried>
-5.2196

> <Gold.PLP.part.nonpolar>
-35.4373

> <Gold.PLP.part.repulsive>
0.0869

> <Gold.PLP.ligand.clash>
0.0000

> <Gold.PLP.ligand.torsion>
1.1347

> <Gold.PLP.Chemscore.Hbond>
0.0000

> <Gold.PLP.Chemscore.CHOScore>
0.0000

> <Gold.PLP.Chemscore.Metal>
0.0000

> <Gold.PLP.Chemscore.Internal.Correction>
2.1923

#       Name:                unknown
#       Creating user name   williammccorkindale
#       Creation time:       Tue Jun  7 14:55:36 2022


#       File generated by GOLD software.
#

@<TRIPOS>MOLECULE
unknown|prepared_Mpro-x0195|mol2|1|dock2
    30    31     1
SMALL
NO_CHARGES


@<TRIPOS>ATOM
      1 C1         -14.2119  12.9257  72.4000 C.3            1 RES1               0.0000
      2 N2         -13.1978  13.9368  72.4228 N.pl3          1 RES1               0.0000
      3 C3         -12.8657  14.5637  73.7003 C.3            1 RES1               0.0000
      4 C4         -11.9244  15.7295  73.5079 C.3            1 RES1               0.0000
      5 C5         -12.2441  16.5062  72.2617 C.3            1 RES1               0.0000
      6 C6         -12.0287  15.6104  71.0970 C.ar           1 RES1               0.0000
      7 C7         -11.3895  15.9828  69.9554 C.ar           1 RES1               0.0000
      8 C8         -11.2499  15.0653  68.9361 C.ar           1 RES1               0.0000
      9 C9         -11.7431  13.7825  69.0495 C.ar           1 RES1               0.0000
     10 C10        -12.3879  13.4110  70.2041 C.ar           1 RES1               0.0000
     11 C11        -12.5286  14.3201  71.2195 C.ar           1 RES1               0.0000
     12 S12        -11.5779  12.6113  67.7770 S.o2           1 RES1               0.0000
     13 O13        -10.1395  12.2750  67.5686 O.2            1 RES1               0.0000
     14 O14        -12.2843  11.3278  68.1619 O.2            1 RES1               0.0000
     15 N15        -12.2736  13.2087  66.3169 N.3            1 RES1               0.0000
     16 H16        -15.0603  13.2773  73.0241 H              1 RES1               0.0000
     17 H17        -13.8480  11.9555  72.8400 H              1 RES1               0.0000
     18 H18        -14.6184  12.7254  71.3925 H              1 RES1               0.0000
     19 H19        -12.3853  13.8339  74.3821 H              1 RES1               0.0000
     20 H20        -13.7669  14.9522  74.2120 H              1 RES1               0.0000
     21 H21        -11.9632  16.3941  74.3772 H              1 RES1               0.0000
     22 H22        -10.8957  15.3359  73.4223 H              1 RES1               0.0000
     23 H23        -11.6054  17.4076  72.2342 H              1 RES1               0.0000
     24 H24        -13.3259  16.7544  72.2871 H              1 RES1               0.0000
     25 H25        -11.0129  16.9939  69.8933 H              1 RES1               0.0000
     26 H26        -10.7424  15.3708  68.0375 H              1 RES1               0.0000
     27 H27        -12.7995  12.4157  70.3536 H              1 RES1               0.0000
     28 H28        -11.6281  13.8089  65.7970 H              1 RES1               0.0000
     29 H29        -13.1072  13.7740  66.5895 H              1 RES1               0.0000
     30 ****       -12.5060  12.4372  65.7246 LP             1 RES1               0.0000
@<TRIPOS>BOND
    1    1    2 1     
    2    2    3 1     
    3    3    4 1     
    4    4    5 1     
    5    5    6 1     
    6    6    7 ar    
    7    7    8 ar    
    8    8    9 ar    
    9    9   10 ar    
   10   10   11 ar    
   11    9   12 1     
   12   12   13 2     
   13   12   14 2     
   14   12   15 1     
   15   11    2 1     
   16    6   11 ar    
   17    1   16 1     
   18    1   17 1     
   19    1   18 1     
   20    3   19 1     
   21    3   20 1     
   22    4   21 1     
   23    4   22 1     
   24    5   23 1     
   25    5   24 1     
   26    7   25 1     
   27    8   26 1     
   28   10   27 1     
   29   15   28 1     
   30   15   29 1     
   31   15   30 1     
@<TRIPOS>SUBSTRUCTURE
      1 RES1           1
@<TRIPOS>SET
LONE_PAIRS      STATIC     ATOMS    <user>   **** ""
3 13 14 30
DONOR_HYDROGENS      STATIC     ATOMS    <user>   **** ""
2 28 29
ATOM$BLUE        STATIC     ATOMS    COLORGROUP SYSTEM
3 13 14 30
ATOM$RED        STATIC     ATOMS    COLORGROUP SYSTEM
2 28 29
@<TRIPOS>COMMENT
> <Gold.Version>
2022.1.0

> <Gold.Id.Protein>
6LU7|6LU7_protein|mol2

> <Gold.Protein.RotatedTorsions>
[ 3973 1471 1470 1467 ] final  171.78 input   60.00 | X-H torsion
[ 3372  414  413  411 ] final  -62.92 input   60.00 | X-H torsion
[ 4268 1114 1113 1110 ] final   42.21 input   59.99 | X-H torsion
[ 4409  924  923  921 ] final   19.66 input   59.99 | X-H torsion
[ 4183 1244 1243 1241 ] final -148.30 input   59.99 | X-H torsion
[ 3800  178  177  174 ] final   94.33 input   60.00 | X-H torsion
[ 3793  171  170  167 ] final   48.47 input   60.00 | X-H torsion
[ 3576  185  184  181 ] final -173.42 input   60.00 | X-H torsion
[ 3523  346  345  342 ] final   39.34 input   60.01 | X-H torsion
[ 3515  339  338  335 ] final   76.17 input   60.00 | X-H torsion
[ 3663  154  153  150 ] final -145.98 input   60.00 | X-H torsion
[ 4280 1130 1129 1126 ] final -107.46 input   60.00 | X-H torsion

> <Gold.Protein.ActiveResidues>
 VAL20   THR21   CYS22   GLY23   THR24   THR25   THR26   LEU27   ASN28   PRO39  
 ARG40   HIS41   VAL42   CYS44   THR45   SER46   ASP48   MET49   LEU50   PRO52  
 TYR54   TYR118  ASN119  ILE136  GLY138  SER139  PHE140  LEU141  ASN142  GLY143 
 SER144  CYS145  GLY146  SER147  TYR161  HIS163  HIS164  MET165  GLU166  LEU167 
 PRO168  THR169  GLY170  VAL171  HIS172  ALA173  PHE181  PHE185  VAL186  ASP187 
 ARG188  GLN189  THR190  ALA191  GLN192  ALA193 

> <Gold.Protein.RotatedAtoms>
  -15.1795   18.0319   74.9610 H   0  0  0  0  0  0  0  0  0  0  0  0  # atno 3372 bound_to 414 
   -3.4784   21.9637   74.3062 H   0  0  0  0  0  0  0  0  0  0  0  0  # atno 3515 bound_to 339 
   -3.1829   18.3957   73.1089 H   0  0  0  0  0  0  0  0  0  0  0  0  # atno 3523 bound_to 346 
   -7.1498   26.0529   63.1212 H   0  0  0  0  0  0  0  0  0  0  0  0  # atno 3576 bound_to 185 
   -6.7064   29.0818   65.2684 H   0  0  0  0  0  0  0  0  0  0  0  0  # atno 3663 bound_to 154 
   -3.4414   23.8982   71.8288 H   0  0  0  0  0  0  0  0  0  0  0  0  # atno 3793 bound_to 171 
   -6.8865   23.9868   72.3495 H   0  0  0  0  0  0  0  0  0  0  0  0  # atno 3800 bound_to 178 
  -15.6646    8.1156   78.5532 H   0  0  0  0  0  0  0  0  0  0  0  0  # atno 3973 bound_to 1471
  -19.8641   13.8453   63.5449 H   0  0  0  0  0  0  0  0  0  0  0  0  # atno 4183 bound_to 1244
  -13.8413   16.4028   61.9065 H   0  0  0  0  0  0  0  0  0  0  0  0  # atno 4268 bound_to 1114
  -16.3714   19.4201   57.9593 H   0  0  0  0  0  0  0  0  0  0  0  0  # atno 4280 bound_to 1130
  -11.4406   15.1928   56.2442 H   0  0  0  0  0  0  0  0  0  0  0  0  # atno 4409 bound_to 924 
  -15.3551    7.4704   77.0918 LP  0  0  0  0  0  0  0  0  0  0  0  0  # atno 4696 bound_to 1471
  -15.0122    9.0400   77.3837 LP  0  0  0  0  0  0  0  0  0  0  0  0  # atno 4697 bound_to 1471
  -15.0784   16.9434   76.1664 LP  0  0  0  0  0  0  0  0  0  0  0  0  # atno 4731 bound_to 414 
  -13.8347   17.9606   75.8746 LP  0  0  0  0  0  0  0  0  0  0  0  0  # atno 4732 bound_to 414 
  -12.3934   15.6949   61.6818 LP  0  0  0  0  0  0  0  0  0  0  0  0  # atno 4733 bound_to 1114
  -13.6759   15.2420   60.7781 LP  0  0  0  0  0  0  0  0  0  0  0  0  # atno 4734 bound_to 1114
  -11.9820   15.3810   57.7671 LP  0  0  0  0  0  0  0  0  0  0  0  0  # atno 4763 bound_to 924 
  -10.4410   14.9128   57.4972 LP  0  0  0  0  0  0  0  0  0  0  0  0  # atno 4764 bound_to 924 
  -20.6737   12.4999   63.1181 LP  0  0  0  0  0  0  0  0  0  0  0  0  # atno 4771 bound_to 1244
  -20.8330   13.1087   64.6250 LP  0  0  0  0  0  0  0  0  0  0  0  0  # atno 4772 bound_to 1244
   -6.1544   22.9128   71.3704 LP  0  0  0  0  0  0  0  0  0  0  0  0  # atno 4775 bound_to 178 
   -7.5747   22.5364   72.0829 LP  0  0  0  0  0  0  0  0  0  0  0  0  # atno 4776 bound_to 178 
   -2.6472   24.9950   72.7312 LP  0  0  0  0  0  0  0  0  0  0  0  0  # atno 4779 bound_to 171 
   -1.8673   23.6726   72.1745 LP  0  0  0  0  0  0  0  0  0  0  0  0  # atno 4780 bound_to 171 
   -8.3921   26.6726   63.9700 LP  0  0  0  0  0  0  0  0  0  0  0  0  # atno 4783 bound_to 185 
   -8.4154   25.1063   63.5087 LP  0  0  0  0  0  0  0  0  0  0  0  0  # atno 4784 bound_to 185 
   -3.1967   16.8659   72.5545 LP  0  0  0  0  0  0  0  0  0  0  0  0  # atno 4785 bound_to 346 
   -1.7810   17.5898   72.9268 LP  0  0  0  0  0  0  0  0  0  0  0  0  # atno 4786 bound_to 346 
   -3.3450   20.4500   74.8885 LP  0  0  0  0  0  0  0  0  0  0  0  0  # atno 4787 bound_to 339 
   -2.6426   21.6959   75.6764 LP  0  0  0  0  0  0  0  0  0  0  0  0  # atno 4788 bound_to 339 
   -8.0909   29.8863   64.9785 LP  0  0  0  0  0  0  0  0  0  0  0  0  # atno 4797 bound_to 154 
   -8.1354   28.3306   65.4729 LP  0  0  0  0  0  0  0  0  0  0  0  0  # atno 4798 bound_to 154 

> <Gold.Score>
     Score     S(PLP)   S(hbond)     S(cho)   S(metal)  DE(clash)   DE(tors)     intcor
     43.25     -40.35       1.00       0.00       0.00       0.00       1.15       2.19

> <Gold.PLP.Fitness>
43.2479

> <Gold.PLP.PLP>
-40.3523

> <Gold.PLP.part.hbond>
-1.0000

> <Gold.PLP.part.metal>
0.0000

> <Gold.PLP.part.buried>
-6.0761

> <Gold.PLP.part.nonpolar>
-34.1241

> <Gold.PLP.part.repulsive>
0.1422

> <Gold.PLP.ligand.clash>
0.0000

> <Gold.PLP.ligand.torsion>
1.1483

> <Gold.PLP.Chemscore.Hbond>
1.0000

> <Gold.PLP.Chemscore.CHOScore>
0.0000

> <Gold.PLP.Chemscore.Metal>
0.0000

> <Gold.Chemscore.Hbonds>
donor molecule, donor type, donor heavy atom, donor atom, acceptor molecule, acceptor atom, score
      P1  H  1281  4132       L1    14  1.00

> <Gold.PLP.Chemscore.Internal.Correction>
2.1923

#       Name:                unknown
#       Creating user name   williammccorkindale
#       Creation time:       Tue Jun  7 14:55:36 2022


#       File generated by GOLD software.
#

@<TRIPOS>MOLECULE
unknown|prepared_Mpro-x0072|mol2|1|dock1
    27    27     1
SMALL
NO_CHARGES


@<TRIPOS>ATOM
      1 C1         -12.5289  10.9614  70.5080 C.3            1 RES1               0.0000
      2 S2         -11.3615  11.1291  69.1591 S.o2           1 RES1               0.0000
      3 O3         -10.5861   9.8596  69.0003 O.2            1 RES1               0.0000
      4 O4         -12.1779  11.3295  67.9117 O.2            1 RES1               0.0000
      5 N5         -10.2935  12.4414  69.3980 N.3            1 RES1               0.0000
      6 C6         -10.9066  13.7116  69.0471 C.3            1 RES1               0.0000
      7 C7         -12.3100  13.8177  69.5514 C.3            1 RES1               0.0000
      8 C8         -12.3952  14.4242  70.8988 C.ar           1 RES1               0.0000
      9 C9         -11.7433  15.6202  71.1789 C.ar           1 RES1               0.0000
     10 C10        -11.8148  16.1955  72.4301 C.ar           1 RES1               0.0000
     11 C11        -12.5396  15.5992  73.4501 C.ar           1 RES1               0.0000
     12 C12        -13.1971  14.4015  73.1834 C.ar           1 RES1               0.0000
     13 C13        -13.1173  13.8306  71.9159 C.ar           1 RES1               0.0000
     14 H14        -12.7250   9.8920  70.7259 H              1 RES1               0.0000
     15 H15        -12.0337  11.3751  71.4086 H              1 RES1               0.0000
     16 H16        -13.4565  11.5152  70.3249 H              1 RES1               0.0000
     17 H17         -9.9368  12.4399  70.3715 H              1 RES1               0.0000
     18 H18        -10.3212  14.5360  69.4846 H              1 RES1               0.0000
     19 H19        -10.9286  13.8318  67.9343 H              1 RES1               0.0000
     20 H20        -12.7486  12.8015  69.5526 H              1 RES1               0.0000
     21 H21        -12.9006  14.4697  68.8550 H              1 RES1               0.0000
     22 H22        -11.1644  16.1262  70.4181 H              1 RES1               0.0000
     23 H23        -11.2896  17.1262  72.5958 H              1 RES1               0.0000
     24 H24        -12.5936  16.0485  74.4219 H              1 RES1               0.0000
     25 H25        -13.7661  13.9084  73.9388 H              1 RES1               0.0000
     26 H26        -13.6446  12.8874  71.7337 H              1 RES1               0.0000
     27 ****        -9.5154  12.3257  68.7806 LP             1 RES1               0.0000
@<TRIPOS>BOND
    1    1    2 1     
    2    2    3 2     
    3    2    4 2     
    4    2    5 1     
    5    5    6 1     
    6    6    7 1     
    7    7    8 1     
    8    8    9 ar    
    9    9   10 ar    
   10   10   11 ar    
   11   11   12 ar    
   12   12   13 ar    
   13    8   13 ar    
   14    1   14 1     
   15    1   15 1     
   16    1   16 1     
   17    5   17 1     
   18    6   18 1     
   19    6   19 1     
   20    7   20 1     
   21    7   21 1     
   22    9   22 1     
   23   10   23 1     
   24   11   24 1     
   25   12   25 1     
   26   13   26 1     
   27    5   27 1     
@<TRIPOS>SUBSTRUCTURE
      1 RES1           1
@<TRIPOS>SET
LONE_PAIRS      STATIC     ATOMS    <user>   **** ""
3 3 4 27
DONOR_HYDROGENS      STATIC     ATOMS    <user>   **** ""
1 17
ATOM$BLUE        STATIC     ATOMS    COLORGROUP SYSTEM
3 3 4 27
ATOM$RED        STATIC     ATOMS    COLORGROUP SYSTEM
1 17
@<TRIPOS>COMMENT
> <Gold.Version>
2022.1.0

> <Gold.Id.Protein>
6LU7|6LU7_protein|mol2

> <Gold.Protein.RotatedTorsions>
[ 3973 1471 1470 1467 ] final  110.10 input   60.00 | X-H torsion
[ 3372  414  413  411 ] final -151.94 input   60.00 | X-H torsion
[ 4268 1114 1113 1110 ] final   44.96 input   59.99 | X-H torsion
[ 4409  924  923  921 ] final  100.56 input   59.99 | X-H torsion
[ 4183 1244 1243 1241 ] final   86.66 input   59.99 | X-H torsion
[ 3800  178  177  174 ] final   29.24 input   60.00 | X-H torsion
[ 3793  171  170  167 ] final   48.99 input   60.00 | X-H torsion
[ 3576  185  184  181 ] final -107.79 input   60.00 | X-H torsion
[ 3523  346  345  342 ] final -106.65 input   60.01 | X-H torsion
[ 3515  339  338  335 ] final  -72.18 input   60.00 | X-H torsion
[ 3663  154  153  150 ] final  -27.66 input   60.00 | X-H torsion
[ 4280 1130 1129 1126 ] final    6.09 input   60.00 | X-H torsion

> <Gold.Protein.ActiveResidues>
 VAL20   THR21   CYS22   GLY23   THR24   THR25   THR26   LEU27   ASN28   PRO39  
 ARG40   HIS41   VAL42   CYS44   THR45   SER46   ASP48   MET49   LEU50   PRO52  
 TYR54   TYR118  ASN119  ILE136  GLY138  SER139  PHE140  LEU141  ASN142  GLY143 
 SER144  CYS145  GLY146  SER147  TYR161  HIS163  HIS164  MET165  GLU166  LEU167 
 PRO168  THR169  GLY170  VAL171  HIS172  ALA173  PHE181  PHE185  VAL186  ASP187 
 ARG188  GLN189  THR190  ALA191  GLN192  ALA193 

> <Gold.Protein.RotatedAtoms>
  -15.4204   17.0707   75.8219 H   0  0  0  0  0  0  0  0  0  0  0  0  # atno 3372 bound_to 414 
   -3.0954   20.4926   75.2728 H   0  0  0  0  0  0  0  0  0  0  0  0  # atno 3515 bound_to 339 
   -2.7929   16.7420   72.5442 H   0  0  0  0  0  0  0  0  0  0  0  0  # atno 3523 bound_to 346 
   -7.6513   25.1709   63.1226 H   0  0  0  0  0  0  0  0  0  0  0  0  # atno 3576 bound_to 185 
   -8.1084   28.3234   65.4781 H   0  0  0  0  0  0  0  0  0  0  0  0  # atno 3663 bound_to 154 
   -3.4373   23.8914   71.8260 H   0  0  0  0  0  0  0  0  0  0  0  0  # atno 3793 bound_to 171 
   -6.1399   23.6969   71.7385 H   0  0  0  0  0  0  0  0  0  0  0  0  # atno 3800 bound_to 178 
  -15.6688    7.3720   77.9464 H   0  0  0  0  0  0  0  0  0  0  0  0  # atno 3973 bound_to 1471
  -20.7222   12.4711   63.1787 H   0  0  0  0  0  0  0  0  0  0  0  0  # atno 4183 bound_to 1244
  -13.8760   16.3896   61.8811 H   0  0  0  0  0  0  0  0  0  0  0  0  # atno 4268 bound_to 1114
  -16.0269   20.3621   59.1623 H   0  0  0  0  0  0  0  0  0  0  0  0  # atno 4280 bound_to 1130
  -10.4397   14.9033   56.8685 H   0  0  0  0  0  0  0  0  0  0  0  0  # atno 4409 bound_to 924 
  -15.0163    8.3282   76.8027 LP  0  0  0  0  0  0  0  0  0  0  0  0  # atno 4696 bound_to 1471
  -15.3469    8.9310   78.2839 LP  0  0  0  0  0  0  0  0  0  0  0  0  # atno 4697 bound_to 1471
  -13.9272   17.5919   76.2049 LP  0  0  0  0  0  0  0  0  0  0  0  0  # atno 4731 bound_to 414 
  -14.7434   18.2801   74.9692 LP  0  0  0  0  0  0  0  0  0  0  0  0  # atno 4732 bound_to 414 
  -12.3992   15.7273   61.7130 LP  0  0  0  0  0  0  0  0  0  0  0  0  # atno 4733 bound_to 1114
  -13.6352   15.2229   60.7726 LP  0  0  0  0  0  0  0  0  0  0  0  0  # atno 4734 bound_to 1114
  -11.9690   15.3548   56.5441 LP  0  0  0  0  0  0  0  0  0  0  0  0  # atno 4763 bound_to 924 
  -11.4620   15.2306   58.0914 LP  0  0  0  0  0  0  0  0  0  0  0  0  # atno 4764 bound_to 924 
  -20.7902   13.1772   64.6432 LP  0  0  0  0  0  0  0  0  0  0  0  0  # atno 4771 bound_to 1244
  -19.8523   13.8154   63.4686 LP  0  0  0  0  0  0  0  0  0  0  0  0  # atno 4772 bound_to 1244
   -6.9303   22.2863   71.5556 LP  0  0  0  0  0  0  0  0  0  0  0  0  # atno 4775 bound_to 178 
   -7.5505   23.4548   72.5129 LP  0  0  0  0  0  0  0  0  0  0  0  0  # atno 4776 bound_to 178 
   -2.6554   24.9961   72.7293 LP  0  0  0  0  0  0  0  0  0  0  0  0  # atno 4779 bound_to 171 
   -1.8632   23.6783   72.1792 LP  0  0  0  0  0  0  0  0  0  0  0  0  # atno 4780 bound_to 171 
   -7.4844   26.7435   63.5062 LP  0  0  0  0  0  0  0  0  0  0  0  0  # atno 4783 bound_to 185 
   -8.8180   25.9237   63.9711 LP  0  0  0  0  0  0  0  0  0  0  0  0  # atno 4784 bound_to 185 
   -1.8734   17.9813   73.0605 LP  0  0  0  0  0  0  0  0  0  0  0  0  # atno 4785 bound_to 346 
   -3.4971   18.1398   72.9895 LP  0  0  0  0  0  0  0  0  0  0  0  0  # atno 4786 bound_to 346 
   -2.7408   22.0731   75.4286 LP  0  0  0  0  0  0  0  0  0  0  0  0  # atno 4787 bound_to 339 
   -3.6326   21.5544   74.1628 LP  0  0  0  0  0  0  0  0  0  0  0  0  # atno 4788 bound_to 339 
   -6.6994   29.1074   65.2580 LP  0  0  0  0  0  0  0  0  0  0  0  0  # atno 4797 bound_to 154 
   -8.1150   29.8733   64.9821 LP  0  0  0  0  0  0  0  0  0  0  0  0  # atno 4798 bound_to 154 

> <Gold.Score>
     Score     S(PLP)   S(hbond)     S(cho)   S(metal)  DE(clash)   DE(tors)     intcor
     44.46     -40.01       2.00       0.00       0.00       0.00       0.81       0.07

> <Gold.PLP.Fitness>
44.4608

> <Gold.PLP.PLP>
-40.0091

> <Gold.PLP.part.hbond>
-2.0000

> <Gold.PLP.part.metal>
0.0000

> <Gold.PLP.part.buried>
-5.0811

> <Gold.PLP.part.nonpolar>
-34.1050

> <Gold.PLP.part.repulsive>
0.1975

> <Gold.PLP.ligand.clash>
0.0000

> <Gold.PLP.ligand.torsion>
0.8075

> <Gold.PLP.Chemscore.Hbond>
2.0000

> <Gold.PLP.Chemscore.CHOScore>
0.0000

> <Gold.PLP.Chemscore.Metal>
0.0000

> <Gold.Chemscore.Hbonds>
donor molecule, donor type, donor heavy atom, donor atom, acceptor molecule, acceptor atom, score
      L1  H     5    17       P1  1464  1.00
      P1  H  1281  4132       L1     4  1.00

> <Gold.PLP.Chemscore.Internal.Correction>
0.0668

#       Name:                unknown
#       Creating user name   williammccorkindale
#       Creation time:       Tue Jun  7 14:55:36 2022


#       File generated by GOLD software.
#

@<TRIPOS>MOLECULE
unknown|prepared_Mpro-x0072|mol2|1|dock2
    27    27     1
SMALL
NO_CHARGES


@<TRIPOS>ATOM
      1 C1         -12.5801  10.9724  70.5859 C.3            1 RES1               0.0000
      2 S2         -11.3510  11.2054  69.3030 S.o2           1 RES1               0.0000
      3 O3         -10.1991  10.2787  69.5317 O.2            1 RES1               0.0000
      4 O4         -12.0078  10.8134  68.0078 O.2            1 RES1               0.0000
      5 N5         -10.7981  12.8208  69.2339 N.3            1 RES1               0.0000
      6 C6         -11.8472  13.7368  68.8182 C.3            1 RES1               0.0000
      7 C7         -11.7352  15.0654  69.4945 C.3            1 RES1               0.0000
      8 C8         -12.1417  15.0253  70.9170 C.ar           1 RES1               0.0000
      9 C9         -11.7103  16.0057  71.8040 C.ar           1 RES1               0.0000
     10 C10        -12.0819  15.9797  73.1318 C.ar           1 RES1               0.0000
     11 C11        -12.8984  14.9743  73.6254 C.ar           1 RES1               0.0000
     12 C12        -13.3374  13.9864  72.7484 C.ar           1 RES1               0.0000
     13 C13        -12.9554  14.0237  71.4099 C.ar           1 RES1               0.0000
     14 H14        -12.4552   9.9843  71.0734 H              1 RES1               0.0000
     15 H15        -12.3713  11.7310  71.3659 H              1 RES1               0.0000
     16 H16        -13.6006  11.1153  70.2134 H              1 RES1               0.0000
     17 H17        -10.3823  13.0959  70.1429 H              1 RES1               0.0000
     18 H18        -11.7842  13.8988  67.7303 H              1 RES1               0.0000
     19 H19        -12.8509  13.3065  69.0644 H              1 RES1               0.0000
     20 H20        -12.3572  15.7871  68.9313 H              1 RES1               0.0000
     21 H21        -10.6656  15.4028  69.4633 H              1 RES1               0.0000
     22 H22        -11.0718  16.8122  71.4696 H              1 RES1               0.0000
     23 H23        -11.7192  16.7659  73.7798 H              1 RES1               0.0000
     24 H24        -13.1858  14.9564  74.6581 H              1 RES1               0.0000
     25 H25        -13.9669  13.1942  73.0856 H              1 RES1               0.0000
     26 H26        -13.3155  13.2333  70.7417 H              1 RES1               0.0000
     27 ****       -10.0848  12.8759  68.5352 LP             1 RES1               0.0000
@<TRIPOS>BOND
    1    1    2 1     
    2    2    3 2     
    3    2    4 2     
    4    2    5 1     
    5    5    6 1     
    6    6    7 1     
    7    7    8 1     
    8    8    9 ar    
    9    9   10 ar    
   10   10   11 ar    
   11   11   12 ar    
   12   12   13 ar    
   13    8   13 ar    
   14    1   14 1     
   15    1   15 1     
   16    1   16 1     
   17    5   17 1     
   18    6   18 1     
   19    6   19 1     
   20    7   20 1     
   21    7   21 1     
   22    9   22 1     
   23   10   23 1     
   24   11   24 1     
   25   12   25 1     
   26   13   26 1     
   27    5   27 1     
@<TRIPOS>SUBSTRUCTURE
      1 RES1           1
@<TRIPOS>SET
LONE_PAIRS      STATIC     ATOMS    <user>   **** ""
3 3 4 27
DONOR_HYDROGENS      STATIC     ATOMS    <user>   **** ""
1 17
ATOM$BLUE        STATIC     ATOMS    COLORGROUP SYSTEM
3 3 4 27
ATOM$RED        STATIC     ATOMS    COLORGROUP SYSTEM
1 17
@<TRIPOS>COMMENT
> <Gold.Version>
2022.1.0

> <Gold.Id.Protein>
6LU7|6LU7_protein|mol2

> <Gold.Protein.RotatedTorsions>
[ 3973 1471 1470 1467 ] final  -70.65 input   60.00 | X-H torsion
[ 3372  414  413  411 ] final    2.97 input   60.00 | X-H torsion
[ 4268 1114 1113 1110 ] final    4.27 input   59.99 | X-H torsion
[ 4409  924  923  921 ] final   69.80 input   59.99 | X-H torsion
[ 4183 1244 1243 1241 ] final -143.86 input   59.99 | X-H torsion
[ 3800  178  177  174 ] final -163.16 input   60.00 | X-H torsion
[ 3793  171  170  167 ] final -166.26 input   60.00 | X-H torsion
[ 3576  185  184  181 ] final   43.78 input   60.00 | X-H torsion
[ 3523  346  345  342 ] final   15.00 input   60.01 | X-H torsion
[ 3515  339  338  335 ] final   17.68 input   60.00 | X-H torsion
[ 3663  154  153  150 ] final  146.55 input   60.00 | X-H torsion
[ 4280 1130 1129 1126 ] final   12.30 input   60.00 | X-H torsion

> <Gold.Protein.ActiveResidues>
 VAL20   THR21   CYS22   GLY23   THR24   THR25   THR26   LEU27   ASN28   PRO39  
 ARG40   HIS41   VAL42   CYS44   THR45   SER46   ASP48   MET49   LEU50   PRO52  
 TYR54   TYR118  ASN119  ILE136  GLY138  SER139  PHE140  LEU141  ASN142  GLY143 
 SER144  CYS145  GLY146  SER147  TYR161  HIS163  HIS164  MET165  GLU166  LEU167 
 PRO168  THR169  GLY170  VAL171  HIS172  ALA173  PHE181  PHE185  VAL186  ASP187 
 ARG188  GLN189  THR190  ALA191  GLN192  ALA193 

> <Gold.Protein.RotatedAtoms>
  -14.2447   18.3367   75.2256 H   0  0  0  0  0  0  0  0  0  0  0  0  # atno 3372 bound_to 414 
   -3.6685   21.0720   74.2314 H   0  0  0  0  0  0  0  0  0  0  0  0  # atno 3515 bound_to 339 
   -3.4764   18.1556   72.9993 H   0  0  0  0  0  0  0  0  0  0  0  0  # atno 3523 bound_to 346 
   -8.6388   26.3998   64.0220 H   0  0  0  0  0  0  0  0  0  0  0  0  # atno 3576 bound_to 185 
   -7.2600   29.9168   64.9899 H   0  0  0  0  0  0  0  0  0  0  0  0  # atno 3663 bound_to 154 
   -1.7513   23.9954   72.4008 H   0  0  0  0  0  0  0  0  0  0  0  0  # atno 3793 bound_to 171 
   -7.6646   22.7556   72.2429 H   0  0  0  0  0  0  0  0  0  0  0  0  # atno 3800 bound_to 178 
  -15.0204    9.0485   77.4223 H   0  0  0  0  0  0  0  0  0  0  0  0  # atno 3973 bound_to 1471
  -19.8729   13.8703   63.6124 H   0  0  0  0  0  0  0  0  0  0  0  0  # atno 4183 bound_to 1244
  -13.2758   16.4313   62.1297 H   0  0  0  0  0  0  0  0  0  0  0  0  # atno 4268 bound_to 1114
  -15.9775   20.3255   59.2431 H   0  0  0  0  0  0  0  0  0  0  0  0  # atno 4280 bound_to 1130
  -10.7077   14.9764   56.4568 H   0  0  0  0  0  0  0  0  0  0  0  0  # atno 4409 bound_to 924 
  -15.6771    8.0773   78.5508 LP  0  0  0  0  0  0  0  0  0  0  0  0  # atno 4696 bound_to 1471
  -15.3391    7.4936   77.0636 LP  0  0  0  0  0  0  0  0  0  0  0  0  # atno 4697 bound_to 1471
  -15.5636   17.3969   75.3852 LP  0  0  0  0  0  0  0  0  0  0  0  0  # atno 4731 bound_to 414 
  -14.2910   17.2002   76.3894 LP  0  0  0  0  0  0  0  0  0  0  0  0  # atno 4732 bound_to 414 
  -12.5258   15.3000   61.2321 LP  0  0  0  0  0  0  0  0  0  0  0  0  # atno 4733 bound_to 1114
  -14.1130   15.6081   61.0030 LP  0  0  0  0  0  0  0  0  0  0  0  0  # atno 4734 bound_to 1114
  -12.1768   15.4254   56.9936 LP  0  0  0  0  0  0  0  0  0  0  0  0  # atno 4763 bound_to 924 
  -10.9844   15.0863   58.0566 LP  0  0  0  0  0  0  0  0  0  0  0  0  # atno 4764 bound_to 924 
  -20.6295   12.5349   63.0717 LP  0  0  0  0  0  0  0  0  0  0  0  0  # atno 4771 bound_to 1244
  -20.8683   13.0485   64.6033 LP  0  0  0  0  0  0  0  0  0  0  0  0  # atno 4772 bound_to 1244
   -6.6383   24.0180   72.2112 LP  0  0  0  0  0  0  0  0  0  0  0  0  # atno 4775 bound_to 178 
   -6.3071   22.6711   71.3494 LP  0  0  0  0  0  0  0  0  0  0  0  0  # atno 4776 bound_to 178 
   -3.1795   23.5971   71.7304 LP  0  0  0  0  0  0  0  0  0  0  0  0  # atno 4779 bound_to 171 
   -3.0373   24.9725   72.5991 LP  0  0  0  0  0  0  0  0  0  0  0  0  # atno 4780 bound_to 171 
   -8.1026   25.0335   63.3195 LP  0  0  0  0  0  0  0  0  0  0  0  0  # atno 4783 bound_to 185 
   -7.2053   26.3961   63.2520 LP  0  0  0  0  0  0  0  0  0  0  0  0  # atno 4784 bound_to 185 
   -2.8201   16.7396   72.5387 LP  0  0  0  0  0  0  0  0  0  0  0  0  # atno 4785 bound_to 346 
   -1.8620   17.9579   73.0529 LP  0  0  0  0  0  0  0  0  0  0  0  0  # atno 4786 bound_to 346 
   -2.8429   20.7561   75.5976 LP  0  0  0  0  0  0  0  0  0  0  0  0  # atno 4787 bound_to 339 
   -2.9532   22.2879   75.0426 LP  0  0  0  0  0  0  0  0  0  0  0  0  # atno 4788 bound_to 339 
   -8.5796   29.0006   65.2495 LP  0  0  0  0  0  0  0  0  0  0  0  0  # atno 4797 bound_to 154 
   -7.0892   28.3753   65.4823 LP  0  0  0  0  0  0  0  0  0  0  0  0  # atno 4798 bound_to 154 

> <Gold.Score>
     Score     S(PLP)   S(hbond)     S(cho)   S(metal)  DE(clash)   DE(tors)     intcor
     47.17     -42.44       1.99       0.00       0.00       0.00       0.66       0.07

> <Gold.PLP.Fitness>
47.1679

> <Gold.PLP.PLP>
-42.4420

> <Gold.PLP.part.hbond>
-2.0000

> <Gold.PLP.part.metal>
0.0000

> <Gold.PLP.part.buried>
-5.8094

> <Gold.PLP.part.nonpolar>
-35.8971

> <Gold.PLP.part.repulsive>
0.2148

> <Gold.PLP.ligand.clash>
0.0000

> <Gold.PLP.ligand.torsion>
0.6584

> <Gold.PLP.Chemscore.Hbond>
1.9920

> <Gold.PLP.Chemscore.CHOScore>
0.0000

> <Gold.PLP.Chemscore.Metal>
0.0000

> <Gold.Chemscore.Hbonds>
donor molecule, donor type, donor heavy atom, donor atom, acceptor molecule, acceptor atom, score
      L1  H     5    17       P1  1464  0.99
      P1  H  1281  4132       L1     4  1.00

> <Gold.PLP.Chemscore.Internal.Correction>
0.0668

#       Name:                unknown
#       Creating user name   williammccorkindale
#       Creation time:       Tue Jun  7 14:55:36 2022


#       File generated by GOLD software.
#

@<TRIPOS>MOLECULE
unknown|prepared_Mpro-x0305|mol2|1|dock1
    22    22     1
SMALL
NO_CHARGES


@<TRIPOS>ATOM
      1 C1         -12.7591  15.8509  73.4341 C.3            1 RES1               0.0000
      2 C2         -13.6532  15.1893  72.4195 C.3            1 RES1               0.0000
      3 N3         -12.9585  14.4475  71.4224 N.pl3          1 RES1               0.0000
      4 C4         -12.9002  13.0311  71.4185 C.ar           1 RES1               0.0000
      5 C5         -12.1798  12.3299  70.4799 C.ar           1 RES1               0.0000
      6 C6         -12.1053  10.9551  70.4517 C.ar           1 RES1               0.0000
      7 C7         -12.7834  10.2384  71.4084 C.ar           1 RES1               0.0000
      8 C8         -12.7602   8.8057  71.4529 C.1            1 RES1               0.0000
      9 N9         -12.7551   7.6420  71.4781 N.1            1 RES1               0.0000
     10 C10        -13.4997  10.9329  72.3419 C.ar           1 RES1               0.0000
     11 N11        -13.5569  12.2929  72.3472 N.ar           1 RES1               0.0000
     12 H12        -11.9131  15.2205  73.7569 H              1 RES1               0.0000
     13 H13        -12.3330  16.8064  73.0676 H              1 RES1               0.0000
     14 H14        -13.4192  16.1343  74.2996 H              1 RES1               0.0000
     15 H15        -14.2891  15.9670  71.9782 H              1 RES1               0.0000
     16 H16        -14.3008  14.4712  72.9957 H              1 RES1               0.0000
     17 H17        -12.4684  14.9547  70.6584 H              1 RES1               0.0000
     18 H18        -11.6319  12.8743  69.7087 H              1 RES1               0.0000
     19 H19        -11.5279  10.4416  69.6968 H              1 RES1               0.0000
     20 H20        -14.0557  10.4427  73.1209 H              1 RES1               0.0000
     21 ****       -12.7508   6.6423  71.4997 LP             1 RES1               0.0000
     22 ****       -14.0947  12.7574  73.0509 LP             1 RES1               0.0000
@<TRIPOS>BOND
    1    1    2 1     
    2    2    3 1     
    3    3    4 1     
    4    4    5 ar    
    5    5    6 ar    
    6    6    7 ar    
    7    7    8 1     
    8    8    9 3     
    9    7   10 ar    
   10   10   11 ar    
   11    4   11 ar    
   12    1   12 1     
   13    1   13 1     
   14    1   14 1     
   15    2   15 1     
   16    2   16 1     
   17    3   17 1     
   18    5   18 1     
   19    6   19 1     
   20   10   20 1     
   21    9   21 1     
   22   11   22 1     
@<TRIPOS>SUBSTRUCTURE
      1 RES1           1
@<TRIPOS>SET
LONE_PAIRS      STATIC     ATOMS    <user>   **** ""
2 21 22
DONOR_HYDROGENS      STATIC     ATOMS    <user>   **** ""
1 17
ATOM$BLUE        STATIC     ATOMS    COLORGROUP SYSTEM
2 21 22
ATOM$RED        STATIC     ATOMS    COLORGROUP SYSTEM
1 17
@<TRIPOS>COMMENT
> <Gold.Version>
2022.1.0

> <Gold.Id.Protein>
6LU7|6LU7_protein|mol2

> <Gold.Protein.RotatedTorsions>
[ 3973 1471 1470 1467 ] final  -70.80 input   60.00 | X-H torsion
[ 3372  414  413  411 ] final  -14.64 input   60.00 | X-H torsion
[ 4268 1114 1113 1110 ] final  104.04 input   59.99 | X-H torsion
[ 4409  924  923  921 ] final   22.98 input   59.99 | X-H torsion
[ 4183 1244 1243 1241 ] final   76.47 input   59.99 | X-H torsion
[ 3800  178  177  174 ] final  171.92 input   60.00 | X-H torsion
[ 3793  171  170  167 ] final   -2.98 input   60.00 | X-H torsion
[ 3576  185  184  181 ] final  149.91 input   60.00 | X-H torsion
[ 3523  346  345  342 ] final   64.45 input   60.01 | X-H torsion
[ 3515  339  338  335 ] final  -90.55 input   60.00 | X-H torsion
[ 3663  154  153  150 ] final  173.31 input   60.00 | X-H torsion
[ 4280 1130 1129 1126 ] final  151.43 input   60.00 | X-H torsion

> <Gold.Protein.ActiveResidues>
 VAL20   THR21   CYS22   GLY23   THR24   THR25   THR26   LEU27   ASN28   PRO39  
 ARG40   HIS41   VAL42   CYS44   THR45   SER46   ASP48   MET49   LEU50   PRO52  
 TYR54   TYR118  ASN119  ILE136  GLY138  SER139  PHE140  LEU141  ASN142  GLY143 
 SER144  CYS145  GLY146  SER147  TYR161  HIS163  HIS164  MET165  GLU166  LEU167 
 PRO168  THR169  GLY170  VAL171  HIS172  ALA173  PHE181  PHE185  VAL186  ASP187 
 ARG188  GLN189  THR190  ALA191  GLN192  ALA193 

> <Gold.Protein.RotatedAtoms>
  -14.4867   18.3385   75.0721 H   0  0  0  0  0  0  0  0  0  0  0  0  # atno 3372 bound_to 414 
   -2.9374   20.6311   75.4854 H   0  0  0  0  0  0  0  0  0  0  0  0  # atno 3515 bound_to 339 
   -2.7949   18.4984   73.1765 H   0  0  0  0  0  0  0  0  0  0  0  0  # atno 3523 bound_to 346 
   -7.3068   26.5676   63.3608 H   0  0  0  0  0  0  0  0  0  0  0  0  # atno 3576 bound_to 185 
   -6.9163   29.6680   65.0769 H   0  0  0  0  0  0  0  0  0  0  0  0  # atno 3663 bound_to 154 
   -3.4941   24.6005   72.2343 H   0  0  0  0  0  0  0  0  0  0  0  0  # atno 3793 bound_to 171 
   -7.6709   23.1174   72.4222 H   0  0  0  0  0  0  0  0  0  0  0  0  # atno 3800 bound_to 178 
  -15.0209    9.0493   77.4245 H   0  0  0  0  0  0  0  0  0  0  0  0  # atno 3973 bound_to 1471
  -20.8132   12.4171   63.3072 H   0  0  0  0  0  0  0  0  0  0  0  0  # atno 4183 bound_to 1244
  -14.2060   15.8464   61.2117 H   0  0  0  0  0  0  0  0  0  0  0  0  # atno 4268 bound_to 1114
  -15.6769   18.6228   58.9455 H   0  0  0  0  0  0  0  0  0  0  0  0  # atno 4280 bound_to 1130
  -11.3893   15.1773   56.2368 H   0  0  0  0  0  0  0  0  0  0  0  0  # atno 4409 bound_to 924 
  -15.6776    8.0749   78.5503 LP  0  0  0  0  0  0  0  0  0  0  0  0  # atno 4696 bound_to 1471
  -15.3381    7.4950   77.0619 LP  0  0  0  0  0  0  0  0  0  0  0  0  # atno 4697 bound_to 1471
  -15.5318   17.2095   75.6024 LP  0  0  0  0  0  0  0  0  0  0  0  0  # atno 4731 bound_to 414 
  -14.0790   17.3858   76.3268 LP  0  0  0  0  0  0  0  0  0  0  0  0  # atno 4732 bound_to 414 
  -12.9610   16.3324   62.1399 LP  0  0  0  0  0  0  0  0  0  0  0  0  # atno 4733 bound_to 1114
  -12.7410   15.1647   61.0198 LP  0  0  0  0  0  0  0  0  0  0  0  0  # atno 4734 bound_to 1114
  -12.0142   15.3899   57.7241 LP  0  0  0  0  0  0  0  0  0  0  0  0  # atno 4763 bound_to 924 
  -10.4604   14.9196   57.5477 LP  0  0  0  0  0  0  0  0  0  0  0  0  # atno 4764 bound_to 924 
  -20.6960   13.3148   64.6593 LP  0  0  0  0  0  0  0  0  0  0  0  0  # atno 4771 bound_to 1244
  -19.8549   13.7321   63.3232 LP  0  0  0  0  0  0  0  0  0  0  0  0  # atno 4772 bound_to 1244
   -6.3288   23.9173   71.9673 LP  0  0  0  0  0  0  0  0  0  0  0  0  # atno 4775 bound_to 178 
   -6.6103   22.4074   71.4127 LP  0  0  0  0  0  0  0  0  0  0  0  0  # atno 4776 bound_to 178 
   -1.9363   24.5903   72.7043 LP  0  0  0  0  0  0  0  0  0  0  0  0  # atno 4779 bound_to 171 
   -2.5252   23.3699   71.7929 LP  0  0  0  0  0  0  0  0  0  0  0  0  # atno 4780 bound_to 171 
   -8.7495   26.2016   64.0185 LP  0  0  0  0  0  0  0  0  0  0  0  0  # atno 4783 bound_to 185 
   -7.8999   25.0590   63.2188 LP  0  0  0  0  0  0  0  0  0  0  0  0  # atno 4784 bound_to 185 
   -3.4960   17.1361   72.6282 LP  0  0  0  0  0  0  0  0  0  0  0  0  # atno 4785 bound_to 346 
   -1.8725   17.2162   72.7851 LP  0  0  0  0  0  0  0  0  0  0  0  0  # atno 4786 bound_to 346 
   -2.8601   22.2317   75.2023 LP  0  0  0  0  0  0  0  0  0  0  0  0  # atno 4787 bound_to 339 
   -3.6723   21.2563   74.1750 LP  0  0  0  0  0  0  0  0  0  0  0  0  # atno 4788 bound_to 339 
   -8.5229   29.4132   65.1194 LP  0  0  0  0  0  0  0  0  0  0  0  0  # atno 4797 bound_to 154 
   -7.4921   28.2133   65.5248 LP  0  0  0  0  0  0  0  0  0  0  0  0  # atno 4798 bound_to 154 

> <Gold.Score>
     Score     S(PLP)   S(hbond)     S(cho)   S(metal)  DE(clash)   DE(tors)     intcor
     34.20     -31.39       0.00       1.00       0.00       0.00       0.10       0.00

> <Gold.PLP.Fitness>
34.1979

> <Gold.PLP.PLP>
-31.3946

> <Gold.PLP.part.hbond>
0.0000

> <Gold.PLP.part.metal>
0.0000

> <Gold.PLP.part.buried>
-3.3115

> <Gold.PLP.part.nonpolar>
-28.4807

> <Gold.PLP.part.repulsive>
0.3027

> <Gold.PLP.ligand.clash>
0.0000

> <Gold.PLP.ligand.torsion>
0.0984

> <Gold.PLP.Chemscore.Hbond>
0.0000

> <Gold.PLP.Chemscore.CHOScore>
1.0000

> <Gold.PLP.Chemscore.Metal>
0.0000

> <Gold.Chemscore.Hbonds>
donor molecule, donor type, donor heavy atom, donor atom, acceptor molecule, acceptor atom, score
      L1  C    10    20       P1  1449  1.00

> <Gold.PLP.Chemscore.Internal.Correction>
0.0002

#       Name:                unknown
#       Creating user name   williammccorkindale
#       Creation time:       Tue Jun  7 14:55:37 2022


#       File generated by GOLD software.
#

@<TRIPOS>MOLECULE
unknown|prepared_Mpro-x0305|mol2|1|dock2
    22    22     1
SMALL
NO_CHARGES


@<TRIPOS>ATOM
      1 C1         -11.7000  14.7916  67.1563 C.3            1 RES1               0.0000
      2 C2         -11.6790  14.1692  68.5270 C.3            1 RES1               0.0000
      3 N3         -12.8268  14.4579  69.3186 N.pl3          1 RES1               0.0000
      4 C4         -12.7420  14.9375  70.6499 C.ar           1 RES1               0.0000
      5 C5         -13.8335  14.9755  71.4860 C.ar           1 RES1               0.0000
      6 C6         -13.7807  15.4358  72.7828 C.ar           1 RES1               0.0000
      7 C7         -12.5780  15.8824  73.2753 C.ar           1 RES1               0.0000
      8 C8         -12.4337  16.3778  74.6129 C.1            1 RES1               0.0000
      9 N9         -12.3002  16.7853  75.6950 N.1            1 RES1               0.0000
     10 C10        -11.4924  15.8457  72.4466 C.ar           1 RES1               0.0000
     11 N11        -11.5717  15.3856  71.1679 N.ar           1 RES1               0.0000
     12 H12        -12.6875  14.7503  66.6661 H              1 RES1               0.0000
     13 H13        -11.3847  15.8544  67.1662 H              1 RES1               0.0000
     14 H14        -10.9151  14.2561  66.5543 H              1 RES1               0.0000
     15 H15        -10.7531  14.4864  69.0230 H              1 RES1               0.0000
     16 H16        -11.6432  13.0561  68.3635 H              1 RES1               0.0000
     17 H17        -13.7740  14.3150  68.9144 H              1 RES1               0.0000
     18 H18        -14.8009  14.6267  71.1202 H              1 RES1               0.0000
     19 H19        -14.6617  15.4491  73.4078 H              1 RES1               0.0000
     20 H20        -10.5188  16.1778  72.7599 H              1 RES1               0.0000
     21 ****       -12.1856  17.1354  76.6247 LP             1 RES1               0.0000
     22 ****       -10.7497  15.3780  70.5986 LP             1 RES1               0.0000
@<TRIPOS>BOND
    1    1    2 1     
    2    2    3 1     
    3    3    4 1     
    4    4    5 ar    
    5    5    6 ar    
    6    6    7 ar    
    7    7    8 1     
    8    8    9 3     
    9    7   10 ar    
   10   10   11 ar    
   11    4   11 ar    
   12    1   12 1     
   13    1   13 1     
   14    1   14 1     
   15    2   15 1     
   16    2   16 1     
   17    3   17 1     
   18    5   18 1     
   19    6   19 1     
   20   10   20 1     
   21    9   21 1     
   22   11   22 1     
@<TRIPOS>SUBSTRUCTURE
      1 RES1           1
@<TRIPOS>SET
LONE_PAIRS      STATIC     ATOMS    <user>   **** ""
2 21 22
DONOR_HYDROGENS      STATIC     ATOMS    <user>   **** ""
1 17
ATOM$BLUE        STATIC     ATOMS    COLORGROUP SYSTEM
2 21 22
ATOM$RED        STATIC     ATOMS    COLORGROUP SYSTEM
1 17
@<TRIPOS>COMMENT
> <Gold.Version>
2022.1.0

> <Gold.Id.Protein>
6LU7|6LU7_protein|mol2

> <Gold.Protein.RotatedTorsions>
[ 3973 1471 1470 1467 ] final  106.57 input   60.00 | X-H torsion
[ 3372  414  413  411 ] final   49.15 input   60.00 | X-H torsion
[ 4268 1114 1113 1110 ] final   68.33 input   59.99 | X-H torsion
[ 4409  924  923  921 ] final -171.74 input   59.99 | X-H torsion
[ 4183 1244 1243 1241 ] final   74.07 input   59.99 | X-H torsion
[ 3800  178  177  174 ] final -125.95 input   60.00 | X-H torsion
[ 3793  171  170  167 ] final   17.41 input   60.00 | X-H torsion
[ 3576  185  184  181 ] final  149.02 input   60.00 | X-H torsion
[ 3523  346  345  342 ] final  -83.79 input   60.01 | X-H torsion
[ 3515  339  338  335 ] final  162.67 input   60.00 | X-H torsion
[ 3663  154  153  150 ] final  -54.98 input   60.00 | X-H torsion
[ 4280 1130 1129 1126 ] final   86.79 input   60.00 | X-H torsion

> <Gold.Protein.ActiveResidues>
 VAL20   THR21   CYS22   GLY23   THR24   THR25   THR26   LEU27   ASN28   PRO39  
 ARG40   HIS41   VAL42   CYS44   THR45   SER46   ASP48   MET49   LEU50   PRO52  
 TYR54   TYR118  ASN119  ILE136  GLY138  SER139  PHE140  LEU141  ASN142  GLY143 
 SER144  CYS145  GLY146  SER147  TYR161  HIS163  HIS164  MET165  GLU166  LEU167 
 PRO168  THR169  GLY170  VAL171  HIS172  ALA173  PHE181  PHE185  VAL186  ASP187 
 ARG188  GLN189  THR190  ALA191  GLN192  ALA193 

> <Gold.Protein.RotatedAtoms>
  -13.8581   18.0432   75.7767 H   0  0  0  0  0  0  0  0  0  0  0  0  # atno 3372 bound_to 414 
   -2.7750   22.1206   75.3676 H   0  0  0  0  0  0  0  0  0  0  0  0  # atno 3515 bound_to 339 
   -3.1489   16.8461   72.5536 H   0  0  0  0  0  0  0  0  0  0  0  0  # atno 3523 bound_to 346 
   -7.3144   26.5777   63.3680 H   0  0  0  0  0  0  0  0  0  0  0  0  # atno 3576 bound_to 185 
   -7.6838   28.2085   65.5243 H   0  0  0  0  0  0  0  0  0  0  0  0  # atno 3663 bound_to 154 
   -3.5590   24.3310   72.0528 H   0  0  0  0  0  0  0  0  0  0  0  0  # atno 3793 bound_to 171 
   -7.3886   22.3684   71.8812 H   0  0  0  0  0  0  0  0  0  0  0  0  # atno 3800 bound_to 178 
  -15.6565    7.3523   77.8935 H   0  0  0  0  0  0  0  0  0  0  0  0  # atno 3973 bound_to 1471
  -20.8330   12.4078   63.3395 H   0  0  0  0  0  0  0  0  0  0  0  0  # atno 4183 bound_to 1244
  -14.1101   16.2251   61.6324 H   0  0  0  0  0  0  0  0  0  0  0  0  # atno 4268 bound_to 1114
  -15.5373   19.3511   59.6180 H   0  0  0  0  0  0  0  0  0  0  0  0  # atno 4280 bound_to 1130
  -10.9632   15.0821   58.0416 H   0  0  0  0  0  0  0  0  0  0  0  0  # atno 4409 bound_to 924 
  -15.0053    8.3837   76.8164 LP  0  0  0  0  0  0  0  0  0  0  0  0  # atno 4696 bound_to 1471
  -15.3703    8.8954   78.3235 LP  0  0  0  0  0  0  0  0  0  0  0  0  # atno 4697 bound_to 1471
  -15.2764   17.9482   74.9846 LP  0  0  0  0  0  0  0  0  0  0  0  0  # atno 4731 bound_to 414 
  -14.9674   16.9444   76.2350 LP  0  0  0  0  0  0  0  0  0  0  0  0  # atno 4732 bound_to 414 
  -12.5296   15.9994   61.9469 LP  0  0  0  0  0  0  0  0  0  0  0  0  # atno 4733 bound_to 1114
  -13.2689   15.1164   60.7892 LP  0  0  0  0  0  0  0  0  0  0  0  0  # atno 4734 bound_to 1114
  -10.7230   14.9782   56.4355 LP  0  0  0  0  0  0  0  0  0  0  0  0  # atno 4763 bound_to 924 
  -12.1808   15.4271   57.0186 LP  0  0  0  0  0  0  0  0  0  0  0  0  # atno 4764 bound_to 924 
  -20.6726   13.3465   64.6589 LP  0  0  0  0  0  0  0  0  0  0  0  0  # atno 4771 bound_to 1244
  -19.8582   13.7098   63.2910 LP  0  0  0  0  0  0  0  0  0  0  0  0  # atno 4772 bound_to 1244
   -7.1613   23.8689   72.4685 LP  0  0  0  0  0  0  0  0  0  0  0  0  # atno 4775 bound_to 178 
   -6.0621   23.2100   71.4564 LP  0  0  0  0  0  0  0  0  0  0  0  0  # atno 4776 bound_to 178 
   -2.1774   24.8129   72.7646 LP  0  0  0  0  0  0  0  0  0  0  0  0  # atno 4779 bound_to 171 
   -2.2186   23.4188   71.9154 LP  0  0  0  0  0  0  0  0  0  0  0  0  # atno 4780 bound_to 171 
   -8.7547   26.1880   64.0172 LP  0  0  0  0  0  0  0  0  0  0  0  0  # atno 4783 bound_to 185 
   -7.8869   25.0624   63.2130 LP  0  0  0  0  0  0  0  0  0  0  0  0  # atno 4784 bound_to 185 
   -1.7821   17.6382   72.9441 LP  0  0  0  0  0  0  0  0  0  0  0  0  # atno 4785 bound_to 346 
   -3.2299   18.3781   73.0963 LP  0  0  0  0  0  0  0  0  0  0  0  0  # atno 4786 bound_to 346 
   -3.6489   21.4715   74.1580 LP  0  0  0  0  0  0  0  0  0  0  0  0  # atno 4787 bound_to 339 
   -3.0471   20.5165   75.3380 LP  0  0  0  0  0  0  0  0  0  0  0  0  # atno 4788 bound_to 339 
   -6.8055   29.5189   65.1246 LP  0  0  0  0  0  0  0  0  0  0  0  0  # atno 4797 bound_to 154 
   -8.4365   29.5775   65.0690 LP  0  0  0  0  0  0  0  0  0  0  0  0  # atno 4798 bound_to 154 

> <Gold.Score>
     Score     S(PLP)   S(hbond)     S(cho)   S(metal)  DE(clash)   DE(tors)     intcor
     39.81     -35.75       1.41       0.00       0.00       0.00       0.08       0.00

> <Gold.PLP.Fitness>
39.8099

> <Gold.PLP.PLP>
-35.7497

> <Gold.PLP.part.hbond>
-2.0000

> <Gold.PLP.part.metal>
0.0000

> <Gold.PLP.part.buried>
-3.7643

> <Gold.PLP.part.nonpolar>
-30.9621

> <Gold.PLP.part.repulsive>
0.3413

> <Gold.PLP.ligand.clash>
0.0000

> <Gold.PLP.ligand.torsion>
0.0820

> <Gold.PLP.Chemscore.Hbond>
1.4080

> <Gold.PLP.Chemscore.CHOScore>
0.0000

> <Gold.PLP.Chemscore.Metal>
0.0000

> <Gold.Chemscore.Hbonds>
donor molecule, donor type, donor heavy atom, donor atom, acceptor molecule, acceptor atom, score
      L1  H     3    17       P1  1266  0.78
      P1  H   414  3372       L1     9  0.62

> <Gold.PLP.Chemscore.Internal.Correction>
0.0002

#       Name:                unknown
#       Creating user name   williammccorkindale
#       Creation time:       Tue Jun  7 14:55:37 2022


#       File generated by GOLD software.
#

@<TRIPOS>MOLECULE
unknown|prepared_Mpro-x0161|mol2|1|dock2
    26    26     1
SMALL
NO_CHARGES


@<TRIPOS>ATOM
      1 C1         -12.7278  15.5980  73.8872 C.3            1 RES1               0.0000
      2 O2         -12.2239  15.8411  72.5998 O.3            1 RES1               0.0000
      3 C3         -12.7123  15.1111  71.5331 C.2            1 RES1               0.0000
      4 O4         -13.7174  14.3894  71.7370 O.2            1 RES1               0.0000
      5 C5         -12.0708  15.1837  70.2110 C.ar           1 RES1               0.0000
      6 C6         -12.1883  14.1651  69.2960 C.ar           1 RES1               0.0000
      7 C7         -11.5792  14.2319  68.0380 C.ar           1 RES1               0.0000
      8 C8         -10.8391  15.3437  67.6961 C.ar           1 RES1               0.0000
      9 C9         -10.7424  16.3460  68.6378 C.ar           1 RES1               0.0000
     10 C10        -11.3336  16.2916  69.8708 C.ar           1 RES1               0.0000
     11 S11        -10.0656  15.4616  66.1366 S.o2           1 RES1               0.0000
     12 O12        -10.8443  14.6024  65.1839 O.2            1 RES1               0.0000
     13 O13        -10.0616  16.9074  65.6849 O.2            1 RES1               0.0000
     14 N14         -8.4302  14.9417  66.1718 N.3            1 RES1               0.0000
     15 H15        -12.1181  16.0708  74.6836 H              1 RES1               0.0000
     16 H16        -12.8482  14.5305  74.1274 H              1 RES1               0.0000
     17 H17        -13.7608  16.0370  73.9127 H              1 RES1               0.0000
     18 H18        -12.7677  13.2900  69.5584 H              1 RES1               0.0000
     19 H19        -11.6616  13.4452  67.3130 H              1 RES1               0.0000
     20 H20        -10.1647  17.2260  68.3846 H              1 RES1               0.0000
     21 H21        -11.2513  17.0904  70.6098 H              1 RES1               0.0000
     22 H22         -8.2277  14.3512  65.3389 H              1 RES1               0.0000
     23 H23         -7.7481  15.7151  66.2138 H              1 RES1               0.0000
     24 ****       -14.1344  14.3580  72.6454 LP             1 RES1               0.0000
     25 ****       -14.1019  13.8453  70.9913 LP             1 RES1               0.0000
     26 ****        -8.3248  14.4167  67.0163 LP             1 RES1               0.0000
@<TRIPOS>BOND
    1    1    2 1     
    2    2    3 1     
    3    3    4 2     
    4    3    5 1     
    5    5    6 ar    
    6    6    7 ar    
    7    7    8 ar    
    8    8    9 ar    
    9    9   10 ar    
   10    8   11 1     
   11   11   12 2     
   12   11   13 2     
   13   11   14 1     
   14    5   10 ar    
   15    1   15 1     
   16    1   16 1     
   17    1   17 1     
   18    6   18 1     
   19    7   19 1     
   20    9   20 1     
   21   10   21 1     
   22   14   22 1     
   23   14   23 1     
   24    4   24 1     
   25    4   25 1     
   26   14   26 1     
@<TRIPOS>SUBSTRUCTURE
      1 RES1           1
@<TRIPOS>SET
LONE_PAIRS      STATIC     ATOMS    <user>   **** ""
5 24 25 12 13 26
DONOR_HYDROGENS      STATIC     ATOMS    <user>   **** ""
2 22 23
ATOM$BLUE        STATIC     ATOMS    COLORGROUP SYSTEM
5 24 25 12 13 26
ATOM$RED        STATIC     ATOMS    COLORGROUP SYSTEM
2 22 23
@<TRIPOS>COMMENT
> <Gold.Version>
2022.1.0

> <Gold.Id.Protein>
6LU7|6LU7_protein|mol2

> <Gold.Protein.RotatedTorsions>
[ 3973 1471 1470 1467 ] final -136.86 input   60.00 | X-H torsion
[ 3372  414  413  411 ] final   74.93 input   60.00 | X-H torsion
[ 4268 1114 1113 1110 ] final -106.56 input   59.99 | X-H torsion
[ 4409  924  923  921 ] final -144.09 input   59.99 | X-H torsion
[ 4183 1244 1243 1241 ] final   67.42 input   59.99 | X-H torsion
[ 3800  178  177  174 ] final    4.13 input   60.00 | X-H torsion
[ 3793  171  170  167 ] final   99.71 input   60.00 | X-H torsion
[ 3576  185  184  181 ] final -143.52 input   60.00 | X-H torsion
[ 3523  346  345  342 ] final    0.92 input   60.01 | X-H torsion
[ 3515  339  338  335 ] final  -49.07 input   60.00 | X-H torsion
[ 3663  154  153  150 ] final   44.55 input   60.00 | X-H torsion
[ 4280 1130 1129 1126 ] final  177.80 input   60.00 | X-H torsion

> <Gold.Protein.ActiveResidues>
 VAL20   THR21   CYS22   GLY23   THR24   THR25   THR26   LEU27   ASN28   PRO39  
 ARG40   HIS41   VAL42   CYS44   THR45   SER46   ASP48   MET49   LEU50   PRO52  
 TYR54   TYR118  ASN119  ILE136  GLY138  SER139  PHE140  LEU141  ASN142  GLY143 
 SER144  CYS145  GLY146  SER147  TYR161  HIS163  HIS164  MET165  GLU166  LEU167 
 PRO168  THR169  GLY170  VAL171  HIS172  ALA173  PHE181  PHE185  VAL186  ASP187 
 ARG188  GLN189  THR190  ALA191  GLN192  ALA193 

> <Gold.Protein.RotatedAtoms>
  -13.8648   17.7534   76.0776 H   0  0  0  0  0  0  0  0  0  0  0  0  # atno 3372 bound_to 414 
   -3.3011   20.4464   74.9625 H   0  0  0  0  0  0  0  0  0  0  0  0  # atno 3515 bound_to 339 
   -3.5873   17.9696   72.9236 H   0  0  0  0  0  0  0  0  0  0  0  0  # atno 3523 bound_to 346 
   -7.2673   25.5908   63.0443 H   0  0  0  0  0  0  0  0  0  0  0  0  # atno 3576 bound_to 185 
   -8.5573   29.2808   65.1631 H   0  0  0  0  0  0  0  0  0  0  0  0  # atno 3663 bound_to 154 
   -2.7981   23.4157   71.7347 H   0  0  0  0  0  0  0  0  0  0  0  0  # atno 3793 bound_to 171 
   -6.0583   23.3606   71.5240 H   0  0  0  0  0  0  0  0  0  0  0  0  # atno 3800 bound_to 178 
  -15.3904    8.8533   78.3555 H   0  0  0  0  0  0  0  0  0  0  0  0  # atno 3973 bound_to 1471
  -20.8846   12.3886   63.4332 H   0  0  0  0  0  0  0  0  0  0  0  0  # atno 4183 bound_to 1244
  -12.4642   15.3866   61.3384 H   0  0  0  0  0  0  0  0  0  0  0  0  # atno 4268 bound_to 1114
  -15.8608   18.6020   58.5606 H   0  0  0  0  0  0  0  0  0  0  0  0  # atno 4280 bound_to 1130
  -11.3882   15.2108   58.0968 H   0  0  0  0  0  0  0  0  0  0  0  0  # atno 4409 bound_to 924 
  -15.6477    7.3307   77.8419 LP  0  0  0  0  0  0  0  0  0  0  0  0  # atno 4696 bound_to 1471
  -14.9959    8.4367   76.8327 LP  0  0  0  0  0  0  0  0  0  0  0  0  # atno 4697 bound_to 1471
  -14.9385   18.1944   74.9371 LP  0  0  0  0  0  0  0  0  0  0  0  0  # atno 4731 bound_to 414 
  -15.2986   16.9900   75.9795 LP  0  0  0  0  0  0  0  0  0  0  0  0  # atno 4732 bound_to 414 
  -14.0337   15.5060   60.9257 LP  0  0  0  0  0  0  0  0  0  0  0  0  # atno 4733 bound_to 1114
  -13.4225   16.4543   62.1063 LP  0  0  0  0  0  0  0  0  0  0  0  0  # atno 4734 bound_to 1114
  -10.4609   14.9060   56.7949 LP  0  0  0  0  0  0  0  0  0  0  0  0  # atno 4763 bound_to 924 
  -12.0149   15.3696   56.6035 LP  0  0  0  0  0  0  0  0  0  0  0  0  # atno 4764 bound_to 924 
  -20.6059   13.4328   64.6498 LP  0  0  0  0  0  0  0  0  0  0  0  0  # atno 4771 bound_to 1244
  -19.8730   13.6428   63.2057 LP  0  0  0  0  0  0  0  0  0  0  0  0  # atno 4772 bound_to 1244
   -7.2720   22.3076   71.7812 LP  0  0  0  0  0  0  0  0  0  0  0  0  # atno 4775 bound_to 178 
   -7.2911   23.7721   72.5033 LP  0  0  0  0  0  0  0  0  0  0  0  0  # atno 4776 bound_to 178 
   -3.3612   24.7931   72.3931 LP  0  0  0  0  0  0  0  0  0  0  0  0  # atno 4779 bound_to 171 
   -1.8012   24.3604   72.6074 LP  0  0  0  0  0  0  0  0  0  0  0  0  # atno 4780 bound_to 171 
   -7.9722   26.8485   63.7988 LP  0  0  0  0  0  0  0  0  0  0  0  0  # atno 4783 bound_to 185 
   -8.7169   25.3958   63.7574 LP  0  0  0  0  0  0  0  0  0  0  0  0  # atno 4784 bound_to 185 
   -2.5897   16.7376   72.5561 LP  0  0  0  0  0  0  0  0  0  0  0  0  # atno 4785 bound_to 346 
   -1.9807   18.1472   73.1118 LP  0  0  0  0  0  0  0  0  0  0  0  0  # atno 4786 bound_to 346 
   -2.6517   21.7746   75.6424 LP  0  0  0  0  0  0  0  0  0  0  0  0  # atno 4787 bound_to 339 
   -3.5144   21.8994   74.2615 LP  0  0  0  0  0  0  0  0  0  0  0  0  # atno 4788 bound_to 339 
   -7.3521   28.2464   65.5174 LP  0  0  0  0  0  0  0  0  0  0  0  0  # atno 4797 bound_to 154 
   -7.0102   29.7701   65.0399 LP  0  0  0  0  0  0  0  0  0  0  0  0  # atno 4798 bound_to 154 

> <Gold.Score>
     Score     S(PLP)   S(hbond)     S(cho)   S(metal)  DE(clash)   DE(tors)     intcor
     35.06     -30.25       1.83       0.00       0.00       0.00       1.45       2.23

> <Gold.PLP.Fitness>
35.0555

> <Gold.PLP.PLP>
-30.2520

> <Gold.PLP.part.hbond>
-1.7633

> <Gold.PLP.part.metal>
0.0000

> <Gold.PLP.part.buried>
-6.1544

> <Gold.PLP.part.nonpolar>
-24.0016

> <Gold.PLP.part.repulsive>
0.2960

> <Gold.PLP.ligand.clash>
0.0000

> <Gold.PLP.ligand.torsion>
1.4540

> <Gold.PLP.Chemscore.Hbond>
1.8288

> <Gold.PLP.Chemscore.CHOScore>
0.0000

> <Gold.PLP.Chemscore.Metal>
0.0000

> <Gold.Chemscore.Hbonds>
donor molecule, donor type, donor heavy atom, donor atom, acceptor molecule, acceptor atom, score
      L1  H    14    22       P1  1103  1.00
      P1  H  1105  4261       L1    13  0.83

> <Gold.PLP.Chemscore.Internal.Correction>
2.2252

#       Name:                unknown
#       Creating user name   williammccorkindale
#       Creation time:       Tue Jun  7 14:55:37 2022


#       File generated by GOLD software.
#

@<TRIPOS>MOLECULE
unknown|prepared_Mpro-x0161|mol2|1|dock1
    26    26     1
SMALL
NO_CHARGES


@<TRIPOS>ATOM
      1 C1         -12.6049  15.9276  73.5908 C.3            1 RES1               0.0000
      2 O2         -12.2540  16.0448  72.2366 O.3            1 RES1               0.0000
      3 C3         -12.4553  14.9713  71.3902 C.2            1 RES1               0.0000
      4 O4         -13.0374  13.9647  71.8599 O.2            1 RES1               0.0000
      5 C5         -12.0003  15.0161  69.9917 C.ar           1 RES1               0.0000
      6 C6         -12.0354  13.9031  69.1864 C.ar           1 RES1               0.0000
      7 C7         -11.6033  13.9434  67.8560 C.ar           1 RES1               0.0000
      8 C8         -11.1277  15.1248  67.3282 C.ar           1 RES1               0.0000
      9 C9         -11.1067  16.2210  68.1642 C.ar           1 RES1               0.0000
     10 C10        -11.5266  16.1936  69.4663 C.ar           1 RES1               0.0000
     11 S11        -10.5806  15.2123  65.6738 S.o2           1 RES1               0.0000
     12 O12        -11.7992  15.3074  64.8031 O.2            1 RES1               0.0000
     13 O13         -9.6933  16.4276  65.5008 O.2            1 RES1               0.0000
     14 N14         -9.6529  13.8434  65.2138 N.3            1 RES1               0.0000
     15 H15        -12.2003  16.7519  74.2123 H              1 RES1               0.0000
     16 H16        -12.3128  14.9700  74.0483 H              1 RES1               0.0000
     17 H17        -13.7264  15.9587  73.6327 H              1 RES1               0.0000
     18 H18        -12.4076  12.9731  69.5948 H              1 RES1               0.0000
     19 H19        -11.6244  13.0834  67.2149 H              1 RES1               0.0000
     20 H20        -10.7360  17.1567  67.7647 H              1 RES1               0.0000
     21 H21        -11.5061  17.0669  70.1204 H              1 RES1               0.0000
     22 H22        -10.1827  13.2711  64.5244 H              1 RES1               0.0000
     23 H23         -8.7286  14.0797  64.8202 H              1 RES1               0.0000
     24 ****       -13.3365  13.9600  72.8140 LP             1 RES1               0.0000
     25 ****       -13.2023  13.1667  71.2802 LP             1 RES1               0.0000
     26 ****        -9.4862  13.3270  66.0538 LP             1 RES1               0.0000
@<TRIPOS>BOND
    1    1    2 1     
    2    2    3 1     
    3    3    4 2     
    4    3    5 1     
    5    5    6 ar    
    6    6    7 ar    
    7    7    8 ar    
    8    8    9 ar    
    9    9   10 ar    
   10    8   11 1     
   11   11   12 2     
   12   11   13 2     
   13   11   14 1     
   14    5   10 ar    
   15    1   15 1     
   16    1   16 1     
   17    1   17 1     
   18    6   18 1     
   19    7   19 1     
   20    9   20 1     
   21   10   21 1     
   22   14   22 1     
   23   14   23 1     
   24    4   24 1     
   25    4   25 1     
   26   14   26 1     
@<TRIPOS>SUBSTRUCTURE
      1 RES1           1
@<TRIPOS>SET
LONE_PAIRS      STATIC     ATOMS    <user>   **** ""
5 24 25 12 13 26
DONOR_HYDROGENS      STATIC     ATOMS    <user>   **** ""
2 22 23
ATOM$BLUE        STATIC     ATOMS    COLORGROUP SYSTEM
5 24 25 12 13 26
ATOM$RED        STATIC     ATOMS    COLORGROUP SYSTEM
2 22 23
@<TRIPOS>COMMENT
> <Gold.Version>
2022.1.0

> <Gold.Id.Protein>
6LU7|6LU7_protein|mol2

> <Gold.Protein.RotatedTorsions>
[ 3973 1471 1470 1467 ] final  106.33 input   60.00 | X-H torsion
[ 3372  414  413  411 ] final   -8.06 input   60.00 | X-H torsion
[ 4268 1114 1113 1110 ] final   34.60 input   59.99 | X-H torsion
[ 4409  924  923  921 ] final  103.58 input   59.99 | X-H torsion
[ 4183 1244 1243 1241 ] final  148.99 input   59.99 | X-H torsion
[ 3800  178  177  174 ] final -172.43 input   60.00 | X-H torsion
[ 3793  171  170  167 ] final -154.71 input   60.00 | X-H torsion
[ 3576  185  184  181 ] final   31.40 input   60.00 | X-H torsion
[ 3523  346  345  342 ] final   32.98 input   60.01 | X-H torsion
[ 3515  339  338  335 ] final  133.62 input   60.00 | X-H torsion
[ 3663  154  153  150 ] final  -83.04 input   60.00 | X-H torsion
[ 4280 1130 1129 1126 ] final   13.70 input   60.00 | X-H torsion

> <Gold.Protein.ActiveResidues>
 VAL20   THR21   CYS22   GLY23   THR24   THR25   THR26   LEU27   ASN28   PRO39  
 ARG40   HIS41   VAL42   CYS44   THR45   SER46   ASP48   MET49   LEU50   PRO52  
 TYR54   TYR118  ASN119  ILE136  GLY138  SER139  PHE140  LEU141  ASN142  GLY143 
 SER144  CYS145  GLY146  SER147  TYR161  HIS163  HIS164  MET165  GLU166  LEU167 
 PRO168  THR169  GLY170  VAL171  HIS172  ALA173  PHE181  PHE185  VAL186  ASP187 
 ARG188  GLN189  THR190  ALA191  GLN192  ALA193 

> <Gold.Protein.RotatedAtoms>
  -14.3926   18.3455   75.1237 H   0  0  0  0  0  0  0  0  0  0  0  0  # atno 3372 bound_to 414 
   -2.9907   22.2922   74.9873 H   0  0  0  0  0  0  0  0  0  0  0  0  # atno 3515 bound_to 339 
   -3.2700   18.3450   73.0838 H   0  0  0  0  0  0  0  0  0  0  0  0  # atno 3523 bound_to 346 
   -8.7338   26.2217   64.0190 H   0  0  0  0  0  0  0  0  0  0  0  0  # atno 3576 bound_to 185 
   -7.2390   28.2975   65.5061 H   0  0  0  0  0  0  0  0  0  0  0  0  # atno 3663 bound_to 154 
   -1.7532   24.1573   72.4973 H   0  0  0  0  0  0  0  0  0  0  0  0  # atno 3793 bound_to 171 
   -7.6849   22.8850   72.3184 H   0  0  0  0  0  0  0  0  0  0  0  0  # atno 3800 bound_to 178 
  -15.6557    7.3511   77.8900 H   0  0  0  0  0  0  0  0  0  0  0  0  # atno 3973 bound_to 1471
  -20.1039   13.1607   62.8946 H   0  0  0  0  0  0  0  0  0  0  0  0  # atno 4183 bound_to 1244
  -13.7392   16.4317   61.9711 H   0  0  0  0  0  0  0  0  0  0  0  0  # atno 4268 bound_to 1114
  -15.9664   20.3159   59.2606 H   0  0  0  0  0  0  0  0  0  0  0  0  # atno 4280 bound_to 1130
  -10.4256   14.8999   56.9155 H   0  0  0  0  0  0  0  0  0  0  0  0  # atno 4409 bound_to 924 
  -15.0046    8.3873   76.8174 LP  0  0  0  0  0  0  0  0  0  0  0  0  # atno 4696 bound_to 1471
  -15.3718    8.8930   78.3260 LP  0  0  0  0  0  0  0  0  0  0  0  0  # atno 4697 bound_to 1471
  -15.5532   17.2756   75.5194 LP  0  0  0  0  0  0  0  0  0  0  0  0  # atno 4731 bound_to 414 
  -14.1524   17.3125   76.3579 LP  0  0  0  0  0  0  0  0  0  0  0  0  # atno 4732 bound_to 414 
  -12.3885   15.6067   61.5932 LP  0  0  0  0  0  0  0  0  0  0  0  0  # atno 4733 bound_to 1114
  -13.7837   15.3011   60.8017 LP  0  0  0  0  0  0  0  0  0  0  0  0  # atno 4734 bound_to 1114
  -11.9369   15.3445   56.5078 LP  0  0  0  0  0  0  0  0  0  0  0  0  # atno 4763 bound_to 924 
  -11.5084   15.2443   58.0804 LP  0  0  0  0  0  0  0  0  0  0  0  0  # atno 4764 bound_to 924 
  -21.0555   12.4735   64.0216 LP  0  0  0  0  0  0  0  0  0  0  0  0  # atno 4771 bound_to 1244
  -20.2097   13.8246   64.3764 LP  0  0  0  0  0  0  0  0  0  0  0  0  # atno 4772 bound_to 1244
   -6.5147   23.9991   72.1242 LP  0  0  0  0  0  0  0  0  0  0  0  0  # atno 4775 bound_to 178 
   -6.4103   22.5595   71.3604 LP  0  0  0  0  0  0  0  0  0  0  0  0  # atno 4776 bound_to 178 
   -3.0194   23.4958   71.7183 LP  0  0  0  0  0  0  0  0  0  0  0  0  # atno 4779 bound_to 171 
   -3.1954   24.9108   72.5141 LP  0  0  0  0  0  0  0  0  0  0  0  0  # atno 4780 bound_to 171 
   -7.9217   25.0537   63.2289 LP  0  0  0  0  0  0  0  0  0  0  0  0  # atno 4783 bound_to 185 
   -7.2904   26.5552   63.3456 LP  0  0  0  0  0  0  0  0  0  0  0  0  # atno 4784 bound_to 185 
   -3.1039   16.8186   72.5448 LP  0  0  0  0  0  0  0  0  0  0  0  0  # atno 4785 bound_to 346 
   -1.7861   17.6882   72.9618 LP  0  0  0  0  0  0  0  0  0  0  0  0  # atno 4786 bound_to 346 
   -3.6644   21.0077   74.2496 LP  0  0  0  0  0  0  0  0  0  0  0  0  # atno 4787 bound_to 339 
   -2.8144   20.8075   75.6295 LP  0  0  0  0  0  0  0  0  0  0  0  0  # atno 4788 bound_to 339 
   -7.1082   29.8432   65.0145 LP  0  0  0  0  0  0  0  0  0  0  0  0  # atno 4797 bound_to 154 
   -8.5817   29.1636   65.1975 LP  0  0  0  0  0  0  0  0  0  0  0  0  # atno 4798 bound_to 154 

> <Gold.Score>
     Score     S(PLP)   S(hbond)     S(cho)   S(metal)  DE(clash)   DE(tors)     intcor
     37.36     -31.55       1.99       0.00       0.00       0.00       1.20       2.23

> <Gold.PLP.Fitness>
37.3593

> <Gold.PLP.PLP>
-31.5486

> <Gold.PLP.part.hbond>
-2.0000

> <Gold.PLP.part.metal>
0.0000

> <Gold.PLP.part.buried>
-7.3174

> <Gold.PLP.part.nonpolar>
-23.5465

> <Gold.PLP.part.repulsive>
0.3725

> <Gold.PLP.ligand.clash>
0.0000

> <Gold.PLP.ligand.torsion>
1.1954

> <Gold.PLP.Chemscore.Hbond>
1.9920

> <Gold.PLP.Chemscore.CHOScore>
0.0000

> <Gold.PLP.Chemscore.Metal>
0.0000

> <Gold.Chemscore.Hbonds>
donor molecule, donor type, donor heavy atom, donor atom, acceptor molecule, acceptor atom, score
      L1  H    14    23       P1  1103  0.99
      P1  H  1105  4261       L1    13  1.00

> <Gold.PLP.Chemscore.Internal.Correction>
2.2256

#       Name:                unknown
#       Creating user name   williammccorkindale
#       Creation time:       Tue Jun  7 14:55:37 2022


#       File generated by GOLD software.
#

@<TRIPOS>MOLECULE
unknown|prepared_Mpro-x1077|mol2|1|dock2
    32    33     1
SMALL
NO_CHARGES


@<TRIPOS>ATOM
      1 N1         -11.8755   6.5125  71.2779 N.1            1 RES1               0.0000
      2 C2         -12.0606   7.6552  71.2737 C.1            1 RES1               0.0000
      3 C3         -12.2793   9.0870  71.2542 C.ar           1 RES1               0.0000
      4 C4         -11.6210   9.9015  70.3563 C.ar           1 RES1               0.0000
      5 C5         -11.8305  11.2716  70.3378 C.ar           1 RES1               0.0000
      6 C6         -12.7067  11.8738  71.2179 C.ar           1 RES1               0.0000
      7 C7         -13.3461  11.0288  72.1001 C.ar           1 RES1               0.0000
      8 N8         -13.1311   9.6802  72.1083 N.ar           1 RES1               0.0000
      9 N9         -12.9128  13.2670  71.1950 N.pl3          1 RES1               0.0000
     10 C10        -12.1604  13.9664  70.1387 C.3            1 RES1               0.0000
     11 C11        -12.2973  15.4565  70.2283 C.3            1 RES1               0.0000
     12 C12        -12.1509  15.9695  71.6525 C.3            1 RES1               0.0000
     13 O13        -11.7615  15.0000  72.5441 O.3            1 RES1               0.0000
     14 C14        -12.8928  14.4997  73.2303 C.3            1 RES1               0.0000
     15 C15        -13.7787  13.9104  72.1235 C.3            1 RES1               0.0000
     16 H16        -10.9328   9.4179  69.6673 H              1 RES1               0.0000
     17 H17        -11.2954  11.8969  69.6140 H              1 RES1               0.0000
     18 H18        -14.0342  11.4838  72.7963 H              1 RES1               0.0000
     19 H19        -12.6126  13.6375  69.1814 H              1 RES1               0.0000
     20 H20        -11.0785  13.7383  70.2173 H              1 RES1               0.0000
     21 H21        -13.3155  15.7116  69.8328 H              1 RES1               0.0000
     22 H22        -11.5322  15.9120  69.6020 H              1 RES1               0.0000
     23 H23        -13.0668  16.4495  72.0295 H              1 RES1               0.0000
     24 H24        -11.3605  16.7696  71.6795 H              1 RES1               0.0000
     25 H25        -12.6150  13.7149  73.9407 H              1 RES1               0.0000
     26 H26        -13.4239  15.3540  73.7051 H              1 RES1               0.0000
     27 H27        -14.6194  13.3468  72.5058 H              1 RES1               0.0000
     28 H28        -14.2446  14.8292  71.6498 H              1 RES1               0.0000
     29 ****       -11.7156   5.5253  71.2815 LP             1 RES1               0.0000
     30 ****       -13.6232   9.1157  72.7711 LP             1 RES1               0.0000
     31 ****       -11.1202  15.3930  73.2031 LP             1 RES1               0.0000
     32 ****       -11.3159  14.2537  72.0497 LP             1 RES1               0.0000
@<TRIPOS>BOND
    1    1    2 3     
    2    2    3 1     
    3    3    4 ar    
    4    4    5 ar    
    5    5    6 ar    
    6    6    7 ar    
    7    7    8 ar    
    8    6    9 1     
    9    9   10 1     
   10   10   11 1     
   11   11   12 1     
   12   12   13 1     
   13   13   14 1     
   14   14   15 1     
   15    3    8 ar    
   16   15    9 1     
   17    4   16 1     
   18    5   17 1     
   19    7   18 1     
   20   10   19 1     
   21   10   20 1     
   22   11   21 1     
   23   11   22 1     
   24   12   23 1     
   25   12   24 1     
   26   14   25 1     
   27   14   26 1     
   28   15   27 1     
   29   15   28 1     
   30    1   29 1     
   31    8   30 1     
   32   13   31 1     
   33   13   32 1     
@<TRIPOS>SUBSTRUCTURE
      1 RES1           1
@<TRIPOS>SET
LONE_PAIRS      STATIC     ATOMS    <user>   **** ""
4 29 30 31 32
ATOM$BLUE        STATIC     ATOMS    COLORGROUP SYSTEM
4 29 30 31 32
@<TRIPOS>COMMENT
> <Gold.Version>
2022.1.0

> <Gold.Id.Protein>
6LU7|6LU7_protein|mol2

> <Gold.Protein.RotatedTorsions>
[ 3973 1471 1470 1467 ] final  112.06 input   60.00 | X-H torsion
[ 3372  414  413  411 ] final   99.20 input   60.00 | X-H torsion
[ 4268 1114 1113 1110 ] final  -91.18 input   59.99 | X-H torsion
[ 4409  924  923  921 ] final  108.68 input   59.99 | X-H torsion
[ 4183 1244 1243 1241 ] final   10.57 input   59.99 | X-H torsion
[ 3800  178  177  174 ] final  141.17 input   60.00 | X-H torsion
[ 3793  171  170  167 ] final  168.65 input   60.00 | X-H torsion
[ 3576  185  184  181 ] final  -88.05 input   60.00 | X-H torsion
[ 3523  346  345  342 ] final -160.55 input   60.01 | X-H torsion
[ 3515  339  338  335 ] final   78.29 input   60.00 | X-H torsion
[ 3663  154  153  150 ] final   96.70 input   60.00 | X-H torsion
[ 4280 1130 1129 1126 ] final -104.36 input   60.00 | X-H torsion

> <Gold.Protein.ActiveResidues>
 VAL20   THR21   CYS22   GLY23   THR24   THR25   THR26   LEU27   ASN28   PRO39  
 ARG40   HIS41   VAL42   CYS44   THR45   SER46   ASP48   MET49   LEU50   PRO52  
 TYR54   TYR118  ASN119  ILE136  GLY138  SER139  PHE140  LEU141  ASN142  GLY143 
 SER144  CYS145  GLY146  SER147  TYR161  HIS163  HIS164  MET165  GLU166  LEU167 
 PRO168  THR169  GLY170  VAL171  HIS172  ALA173  PHE181  PHE185  VAL186  ASP187 
 ARG188  GLN189  THR190  ALA191  GLN192  ALA193 

> <Gold.Protein.RotatedAtoms>
  -14.0233   17.4603   76.2869 H   0  0  0  0  0  0  0  0  0  0  0  0  # atno 3372 bound_to 414 
   -3.4633   21.9897   74.3233 H   0  0  0  0  0  0  0  0  0  0  0  0  # atno 3515 bound_to 339 
   -2.0114   17.0286   72.7091 H   0  0  0  0  0  0  0  0  0  0  0  0  # atno 3523 bound_to 346 
   -7.9290   25.0576   63.2367 H   0  0  0  0  0  0  0  0  0  0  0  0  # atno 3576 bound_to 185 
   -8.0489   29.9007   64.9772 H   0  0  0  0  0  0  0  0  0  0  0  0  # atno 3663 bound_to 154 
   -1.8710   23.6793   72.1747 H   0  0  0  0  0  0  0  0  0  0  0  0  # atno 3793 bound_to 171 
   -7.4761   23.5643   72.5162 H   0  0  0  0  0  0  0  0  0  0  0  0  # atno 3800 bound_to 178 
  -15.6751    7.3844   77.9753 H   0  0  0  0  0  0  0  0  0  0  0  0  # atno 3973 bound_to 1471
  -21.0425   12.6346   64.2753 H   0  0  0  0  0  0  0  0  0  0  0  0  # atno 4183 bound_to 1244
  -12.4014   15.5449   61.5221 H   0  0  0  0  0  0  0  0  0  0  0  0  # atno 4268 bound_to 1114
  -16.3831   19.4693   57.9618 H   0  0  0  0  0  0  0  0  0  0  0  0  # atno 4280 bound_to 1130
  -10.4072   14.8958   56.9967 H   0  0  0  0  0  0  0  0  0  0  0  0  # atno 4409 bound_to 924 
  -15.0229    8.2972   76.7966 LP  0  0  0  0  0  0  0  0  0  0  0  0  # atno 4696 bound_to 1471
  -15.3339    8.9496   78.2609 LP  0  0  0  0  0  0  0  0  0  0  0  0  # atno 4697 bound_to 1471
  -14.5756   18.3268   75.0250 LP  0  0  0  0  0  0  0  0  0  0  0  0  # atno 4731 bound_to 414 
  -15.5019   17.1528   75.6808 LP  0  0  0  0  0  0  0  0  0  0  0  0  # atno 4732 bound_to 414 
  -13.8601   15.3517   60.8273 LP  0  0  0  0  0  0  0  0  0  0  0  0  # atno 4733 bound_to 1114
  -13.6594   16.4491   62.0198 LP  0  0  0  0  0  0  0  0  0  0  0  0  # atno 4734 bound_to 1114
  -11.8785   15.3258   56.4505 LP  0  0  0  0  0  0  0  0  0  0  0  0  # atno 4763 bound_to 924 
  -11.5854   15.2670   58.0559 LP  0  0  0  0  0  0  0  0  0  0  0  0  # atno 4764 bound_to 924 
  -20.0479   13.9153   64.1384 LP  0  0  0  0  0  0  0  0  0  0  0  0  # atno 4771 bound_to 1244
  -20.2721   12.9126   62.8691 LP  0  0  0  0  0  0  0  0  0  0  0  0  # atno 4772 bound_to 1244
   -6.0907   23.5997   71.6633 LP  0  0  0  0  0  0  0  0  0  0  0  0  # atno 4775 bound_to 178 
   -7.0446   22.2749   71.6221 LP  0  0  0  0  0  0  0  0  0  0  0  0  # atno 4776 bound_to 178 
   -3.4462   23.8926   71.8268 LP  0  0  0  0  0  0  0  0  0  0  0  0  # atno 4779 bound_to 171 
   -2.6500   24.9954   72.7305 LP  0  0  0  0  0  0  0  0  0  0  0  0  # atno 4780 bound_to 171 
   -7.2860   26.5488   63.3413 LP  0  0  0  0  0  0  0  0  0  0  0  0  # atno 4783 bound_to 185 
   -8.7367   26.2326   64.0211 LP  0  0  0  0  0  0  0  0  0  0  0  0  # atno 4784 bound_to 185 
   -2.5500   18.4871   73.1893 LP  0  0  0  0  0  0  0  0  0  0  0  0  # atno 4785 bound_to 346 
   -3.6075   17.3453   72.6947 LP  0  0  0  0  0  0  0  0  0  0  0  0  # atno 4786 bound_to 346 
   -3.3627   20.4565   74.8592 LP  0  0  0  0  0  0  0  0  0  0  0  0  # atno 4787 bound_to 339 
   -2.6400   21.6633   75.6885 LP  0  0  0  0  0  0  0  0  0  0  0  0  # atno 4788 bound_to 339 
   -8.1723   28.3531   65.4649 LP  0  0  0  0  0  0  0  0  0  0  0  0  # atno 4797 bound_to 154 
   -6.7020   29.0390   65.2797 LP  0  0  0  0  0  0  0  0  0  0  0  0  # atno 4798 bound_to 154 

> <Gold.Score>
     Score     S(PLP)   S(hbond)     S(cho)   S(metal)  DE(clash)   DE(tors)     intcor
     44.30     -42.87       0.00       0.81       0.00       1.01       0.00       0.00

> <Gold.PLP.Fitness>
44.3030

> <Gold.PLP.PLP>
-42.8745

> <Gold.PLP.part.hbond>
0.0000

> <Gold.PLP.part.metal>
0.0000

> <Gold.PLP.part.buried>
-6.2663

> <Gold.PLP.part.nonpolar>
-37.8556

> <Gold.PLP.part.repulsive>
0.3562

> <Gold.PLP.ligand.clash>
1.0062

> <Gold.PLP.ligand.torsion>
0.0020

> <Gold.PLP.Chemscore.Hbond>
0.0000

> <Gold.PLP.Chemscore.CHOScore>
0.8129

> <Gold.PLP.Chemscore.Metal>
0.0000

> <Gold.Chemscore.Hbonds>
donor molecule, donor type, donor heavy atom, donor atom, acceptor molecule, acceptor atom, score
      L1  C     7    18       P1  1449  0.81

> <Gold.PLP.Chemscore.Internal.Correction>
0.0001

#       Name:                unknown
#       Creating user name   williammccorkindale
#       Creation time:       Tue Jun  7 14:55:37 2022


#       File generated by GOLD software.
#

@<TRIPOS>MOLECULE
unknown|prepared_Mpro-x1077|mol2|1|dock1
    32    33     1
SMALL
NO_CHARGES


@<TRIPOS>ATOM
      1 N1         -12.1978   6.7371  71.1862 N.1            1 RES1               0.0000
      2 C2         -12.3162   7.8886  71.1996 C.1            1 RES1               0.0000
      3 C3         -12.4642   9.3296  71.1972 C.ar           1 RES1               0.0000
      4 C4         -11.8511  10.1125  70.2412 C.ar           1 RES1               0.0000
      5 C5         -11.9929  11.4914  70.2389 C.ar           1 RES1               0.0000
      6 C6         -12.7539  12.1343  71.1942 C.ar           1 RES1               0.0000
      7 C7         -13.3513  11.3199  72.1329 C.ar           1 RES1               0.0000
      8 N8         -13.2038   9.9623  72.1244 N.ar           1 RES1               0.0000
      9 N9         -12.8916  13.5360  71.1873 N.pl3          1 RES1               0.0000
     10 C10        -11.9229  14.2287  70.3197 C.3            1 RES1               0.0000
     11 C11        -12.0100  15.7204  70.4399 C.3            1 RES1               0.0000
     12 C12        -12.1148  16.1822  71.8852 C.3            1 RES1               0.0000
     13 O13        -11.9439  15.1682  72.7956 O.3            1 RES1               0.0000
     14 C14        -13.2054  14.7043  73.2365 C.3            1 RES1               0.0000
     15 C15        -13.8896  14.1934  71.9606 C.3            1 RES1               0.0000
     16 H16        -11.2537   9.5970  69.4930 H              1 RES1               0.0000
     17 H17        -11.4958  12.0910  69.4679 H              1 RES1               0.0000
     18 H18        -13.9493  11.8069  72.8882 H              1 RES1               0.0000
     19 H19        -12.1989  13.9517  69.2822 H              1 RES1               0.0000
     20 H20        -10.8865  13.9449  70.5916 H              1 RES1               0.0000
     21 H21        -12.9226  16.0376  69.8701 H              1 RES1               0.0000
     22 H22        -11.1210  16.1560  69.9872 H              1 RES1               0.0000
     23 H23        -13.0640  16.6957  72.1014 H              1 RES1               0.0000
     24 H24        -11.3101  16.9410  72.0917 H              1 RES1               0.0000
     25 H25        -13.1017  13.8856  73.9553 H              1 RES1               0.0000
     26 H26        -13.7797  15.5693  73.6358 H              1 RES1               0.0000
     27 H27        -14.8111  13.6610  72.1554 H              1 RES1               0.0000
     28 H28        -14.2170  15.1481  71.4438 H              1 RES1               0.0000
     29 ****       -12.0955   5.7424  71.1745 LP             1 RES1               0.0000
     30 ****       -13.6607   9.4214  72.8306 LP             1 RES1               0.0000
     31 ****       -11.4230  15.5088  73.5784 LP             1 RES1               0.0000
     32 ****       -11.4451  14.4159  72.3652 LP             1 RES1               0.0000
@<TRIPOS>BOND
    1    1    2 3     
    2    2    3 1     
    3    3    4 ar    
    4    4    5 ar    
    5    5    6 ar    
    6    6    7 ar    
    7    7    8 ar    
    8    6    9 1     
    9    9   10 1     
   10   10   11 1     
   11   11   12 1     
   12   12   13 1     
   13   13   14 1     
   14   14   15 1     
   15    3    8 ar    
   16   15    9 1     
   17    4   16 1     
   18    5   17 1     
   19    7   18 1     
   20   10   19 1     
   21   10   20 1     
   22   11   21 1     
   23   11   22 1     
   24   12   23 1     
   25   12   24 1     
   26   14   25 1     
   27   14   26 1     
   28   15   27 1     
   29   15   28 1     
   30    1   29 1     
   31    8   30 1     
   32   13   31 1     
   33   13   32 1     
@<TRIPOS>SUBSTRUCTURE
      1 RES1           1
@<TRIPOS>SET
LONE_PAIRS      STATIC     ATOMS    <user>   **** ""
4 29 30 31 32
ATOM$BLUE        STATIC     ATOMS    COLORGROUP SYSTEM
4 29 30 31 32
@<TRIPOS>COMMENT
> <Gold.Version>
2022.1.0

> <Gold.Id.Protein>
6LU7|6LU7_protein|mol2

> <Gold.Protein.RotatedTorsions>
[ 3973 1471 1470 1467 ] final   22.98 input   60.00 | X-H torsion
[ 3372  414  413  411 ] final   28.94 input   60.00 | X-H torsion
[ 4268 1114 1113 1110 ] final  176.47 input   59.99 | X-H torsion
[ 4409  924  923  921 ] final  103.35 input   59.99 | X-H torsion
[ 4183 1244 1243 1241 ] final   28.17 input   59.99 | X-H torsion
[ 3800  178  177  174 ] final -148.80 input   60.00 | X-H torsion
[ 3793  171  170  167 ] final  121.47 input   60.00 | X-H torsion
[ 3576  185  184  181 ] final  109.64 input   60.00 | X-H torsion
[ 3523  346  345  342 ] final  111.55 input   60.01 | X-H torsion
[ 3515  339  338  335 ] final  -11.23 input   60.00 | X-H torsion
[ 3663  154  153  150 ] final   47.14 input   60.00 | X-H torsion
[ 4280 1130 1129 1126 ] final -114.24 input   60.00 | X-H torsion

> <Gold.Protein.ActiveResidues>
 VAL20   THR21   CYS22   GLY23   THR24   THR25   THR26   LEU27   ASN28   PRO39  
 ARG40   HIS41   VAL42   CYS44   THR45   SER46   ASP48   MET49   LEU50   PRO52  
 TYR54   TYR118  ASN119  ILE136  GLY138  SER139  PHE140  LEU141  ASN142  GLY143 
 SER144  CYS145  GLY146  SER147  TYR161  HIS163  HIS164  MET165  GLU166  LEU167 
 PRO168  THR169  GLY170  VAL171  HIS172  ALA173  PHE181  PHE185  VAL186  ASP187 
 ARG188  GLN189  THR190  ALA191  GLN192  ALA193 

> <Gold.Protein.RotatedAtoms>
  -13.9711   18.2177   75.5223 H   0  0  0  0  0  0  0  0  0  0  0  0  # atno 3372 bound_to 414 
   -3.5743   20.6848   74.4756 H   0  0  0  0  0  0  0  0  0  0  0  0  # atno 3515 bound_to 339 
   -2.0895   18.2510   73.1431 H   0  0  0  0  0  0  0  0  0  0  0  0  # atno 3523 bound_to 346 
   -7.7818   26.8432   63.6981 H   0  0  0  0  0  0  0  0  0  0  0  0  # atno 3576 bound_to 185 
   -8.5475   29.3201   65.1508 H   0  0  0  0  0  0  0  0  0  0  0  0  # atno 3663 bound_to 154 
   -2.4563   23.3788   71.8164 H   0  0  0  0  0  0  0  0  0  0  0  0  # atno 3793 bound_to 171 
   -7.5928   22.5763   72.1107 H   0  0  0  0  0  0  0  0  0  0  0  0  # atno 3800 bound_to 178 
  -15.1704    7.8210   76.8441 H   0  0  0  0  0  0  0  0  0  0  0  0  # atno 3973 bound_to 1471
  -21.0539   12.4851   64.0311 H   0  0  0  0  0  0  0  0  0  0  0  0  # atno 4183 bound_to 1244
  -13.4564   15.1636   60.7697 H   0  0  0  0  0  0  0  0  0  0  0  0  # atno 4268 bound_to 1114
  -16.3418   19.3134   57.9626 H   0  0  0  0  0  0  0  0  0  0  0  0  # atno 4280 bound_to 1130
  -10.4266   14.9001   56.9119 H   0  0  0  0  0  0  0  0  0  0  0  0  # atno 4409 bound_to 924 
  -15.1408    9.1166   77.8281 LP  0  0  0  0  0  0  0  0  0  0  0  0  # atno 4696 bound_to 1471
  -15.7244    7.6905   78.3686 LP  0  0  0  0  0  0  0  0  0  0  0  0  # atno 4697 bound_to 1471
  -15.4635   17.7102   75.1181 LP  0  0  0  0  0  0  0  0  0  0  0  0  # atno 4731 bound_to 414 
  -14.6666   17.0067   76.3578 LP  0  0  0  0  0  0  0  0  0  0  0  0  # atno 4732 bound_to 414 
  -14.0114   16.3219   61.7688 LP  0  0  0  0  0  0  0  0  0  0  0  0  # atno 4733 bound_to 1114
  -12.4456   15.8630   61.8360 LP  0  0  0  0  0  0  0  0  0  0  0  0  # atno 4734 bound_to 1114
  -11.9394   15.3453   56.5105 LP  0  0  0  0  0  0  0  0  0  0  0  0  # atno 4763 bound_to 924 
  -11.5048   15.2433   58.0813 LP  0  0  0  0  0  0  0  0  0  0  0  0  # atno 4764 bound_to 924 
  -20.2019   13.8301   64.3671 LP  0  0  0  0  0  0  0  0  0  0  0  0  # atno 4771 bound_to 1244
  -20.1065   13.1483   62.8863 LP  0  0  0  0  0  0  0  0  0  0  0  0  # atno 4772 bound_to 1244
   -6.8406   24.0024   72.3311 LP  0  0  0  0  0  0  0  0  0  0  0  0  # atno 4775 bound_to 178 
   -6.1772   22.8672   71.3626 LP  0  0  0  0  0  0  0  0  0  0  0  0  # atno 4776 bound_to 178 
   -3.5245   24.5464   72.1953 LP  0  0  0  0  0  0  0  0  0  0  0  0  # atno 4779 bound_to 171 
   -1.9822   24.6443   72.7228 LP  0  0  0  0  0  0  0  0  0  0  0  0  # atno 4780 bound_to 171 
   -8.7908   25.5757   63.8513 LP  0  0  0  0  0  0  0  0  0  0  0  0  # atno 4783 bound_to 185 
   -7.3801   25.4073   63.0463 LP  0  0  0  0  0  0  0  0  0  0  0  0  # atno 4784 bound_to 185 
   -3.6388   17.8357   72.8688 LP  0  0  0  0  0  0  0  0  0  0  0  0  # atno 4785 bound_to 346 
   -2.4399   16.7657   72.5781 LP  0  0  0  0  0  0  0  0  0  0  0  0  # atno 4786 bound_to 346 
   -2.6817   21.1728   75.7457 LP  0  0  0  0  0  0  0  0  0  0  0  0  # atno 4787 bound_to 339 
   -3.2093   22.2611   74.6486 LP  0  0  0  0  0  0  0  0  0  0  0  0  # atno 4788 bound_to 339 
   -7.3930   28.2345   65.5203 LP  0  0  0  0  0  0  0  0  0  0  0  0  # atno 4797 bound_to 154 
   -6.9792   29.7424   65.0495 LP  0  0  0  0  0  0  0  0  0  0  0  0  # atno 4798 bound_to 154 

> <Gold.Score>
     Score     S(PLP)   S(hbond)     S(cho)   S(metal)  DE(clash)   DE(tors)     intcor
     44.22     -43.51       0.00       0.42       0.00       0.38       0.09       0.00

> <Gold.PLP.Fitness>
44.2188

> <Gold.PLP.PLP>
-43.5079

> <Gold.PLP.part.hbond>
0.0000

> <Gold.PLP.part.metal>
0.0000

> <Gold.PLP.part.buried>
-6.5582

> <Gold.PLP.part.nonpolar>
-38.5980

> <Gold.PLP.part.repulsive>
0.3698

> <Gold.PLP.ligand.clash>
0.3846

> <Gold.PLP.ligand.torsion>
0.0894

> <Gold.PLP.Chemscore.Hbond>
0.0000

> <Gold.PLP.Chemscore.CHOScore>
0.4247

> <Gold.PLP.Chemscore.Metal>
0.0000

> <Gold.Chemscore.Hbonds>
donor molecule, donor type, donor heavy atom, donor atom, acceptor molecule, acceptor atom, score
      L1  C     7    18       P1  1449  0.42

> <Gold.PLP.Chemscore.Internal.Correction>
0.0001

#       Name:                unknown
#       Creating user name   williammccorkindale
#       Creation time:       Tue Jun  7 14:55:38 2022


#       File generated by GOLD software.
#

@<TRIPOS>MOLECULE
unknown|prepared_Mpro-x0874|mol2|1|dock1
    28    29     1
SMALL
NO_CHARGES


@<TRIPOS>ATOM
      1 O1         -12.2705  11.0985  68.6753 O.2            1 RES1               0.0000
      2 C2         -11.6310  12.1496  68.5112 C.2            1 RES1               0.0000
      3 C3         -12.2809  13.3900  68.1540 C.3            1 RES1               0.0000
      4 C4         -12.0595  14.0007  66.8460 C.3            1 RES1               0.0000
      5 C5         -11.9515  13.0958  65.6633 C.2            1 RES1               0.0000
      6 C6         -12.8834  13.1719  64.6515 C.2            1 RES1               0.0000
      7 S7         -12.3646  12.0026  63.5224 S.3            1 RES1               0.0000
      8 C8         -10.9845  11.4423  64.3483 C.2            1 RES1               0.0000
      9 C9         -10.9694  12.1937  65.4943 C.2            1 RES1               0.0000
     10 C10        -10.8659  14.8954  67.0234 C.3            1 RES1               0.0000
     11 C11        -11.2631  15.5944  68.3315 C.3            1 RES1               0.0000
     12 C12        -11.7777  14.4493  69.1511 C.3            1 RES1               0.0000
     13 N13        -10.2237  12.1098  68.6847 N.am           1 RES1               0.0000
     14 H14        -13.4087  13.3050  68.3150 H              1 RES1               0.0000
     15 H15        -12.9374  14.7066  66.6938 H              1 RES1               0.0000
     16 H16        -13.7617  13.8415  64.5956 H              1 RES1               0.0000
     17 H17        -10.2847  10.6570  64.0147 H              1 RES1               0.0000
     18 H18        -10.1278  12.0048  66.2074 H              1 RES1               0.0000
     19 H19        -10.7248  15.6228  66.2098 H              1 RES1               0.0000
     20 H20         -9.9212  14.3415  67.1382 H              1 RES1               0.0000
     21 H21        -10.4290  16.1344  68.7810 H              1 RES1               0.0000
     22 H22        -12.1299  16.2362  68.0759 H              1 RES1               0.0000
     23 H23        -10.9407  14.0752  69.7655 H              1 RES1               0.0000
     24 H24        -12.5889  14.7499  69.8450 H              1 RES1               0.0000
     25 H25         -9.7087  11.2304  68.9442 H              1 RES1               0.0000
     26 H26         -9.6270  12.9576  68.5621 H              1 RES1               0.0000
     27 ****       -13.2639  11.0946  68.5605 LP             1 RES1               0.0000
     28 ****       -11.7923  10.2557  68.9223 LP             1 RES1               0.0000
@<TRIPOS>BOND
    1    1    2 2     
    2    2    3 1     
    3    3    4 1     
    4    4    5 1     
    5    5    6 2     
    6    6    7 1     
    7    7    8 1     
    8    8    9 2     
    9    4   10 1     
   10   10   11 1     
   11   11   12 1     
   12    2   13 am    
   13   12    3 1     
   14    9    5 1     
   15    3   14 1     
   16    4   15 1     
   17    6   16 1     
   18    8   17 1     
   19    9   18 1     
   20   10   19 1     
   21   10   20 1     
   22   11   21 1     
   23   11   22 1     
   24   12   23 1     
   25   12   24 1     
   26   13   25 1     
   27   13   26 1     
   28    1   27 1     
   29    1   28 1     
@<TRIPOS>SUBSTRUCTURE
      1 RES1           1
@<TRIPOS>SET
LONE_PAIRS      STATIC     ATOMS    <user>   **** ""
2 27 28
DONOR_HYDROGENS      STATIC     ATOMS    <user>   **** ""
2 25 26
ATOM$BLUE        STATIC     ATOMS    COLORGROUP SYSTEM
2 27 28
ATOM$RED        STATIC     ATOMS    COLORGROUP SYSTEM
2 25 26
@<TRIPOS>COMMENT
> <Gold.Version>
2022.1.0

> <Gold.Id.Protein>
6LU7|6LU7_protein|mol2

> <Gold.Protein.RotatedTorsions>
[ 3973 1471 1470 1467 ] final  -50.03 input   60.00 | X-H torsion
[ 3372  414  413  411 ] final  -75.32 input   60.00 | X-H torsion
[ 4268 1114 1113 1110 ] final -163.74 input   59.99 | X-H torsion
[ 4409  924  923  921 ] final  110.37 input   59.99 | X-H torsion
[ 4183 1244 1243 1241 ] final -127.68 input   59.99 | X-H torsion
[ 3800  178  177  174 ] final   38.95 input   60.00 | X-H torsion
[ 3793  171  170  167 ] final  152.79 input   60.00 | X-H torsion
[ 3576  185  184  181 ] final  178.99 input   60.00 | X-H torsion
[ 3523  346  345  342 ] final    9.79 input   60.01 | X-H torsion
[ 3515  339  338  335 ] final   76.21 input   60.00 | X-H torsion
[ 3663  154  153  150 ] final -121.40 input   60.00 | X-H torsion
[ 4280 1130 1129 1126 ] final  166.66 input   60.00 | X-H torsion

> <Gold.Protein.ActiveResidues>
 VAL20   THR21   CYS22   GLY23   THR24   THR25   THR26   LEU27   ASN28   PRO39  
 ARG40   HIS41   VAL42   CYS44   THR45   SER46   ASP48   MET49   LEU50   PRO52  
 TYR54   TYR118  ASN119  ILE136  GLY138  SER139  PHE140  LEU141  ASN142  GLY143 
 SER144  CYS145  GLY146  SER147  TYR161  HIS163  HIS164  MET165  GLU166  LEU167 
 PRO168  THR169  GLY170  VAL171  HIS172  ALA173  PHE181  PHE185  VAL186  ASP187 
 ARG188  GLN189  THR190  ALA191  GLN192  ALA193 

> <Gold.Protein.RotatedAtoms>
  -15.3214   17.8977   75.0134 H   0  0  0  0  0  0  0  0  0  0  0  0  # atno 3372 bound_to 414 
   -3.4782   21.9642   74.3065 H   0  0  0  0  0  0  0  0  0  0  0  0  # atno 3515 bound_to 339 
   -3.5232   18.0900   72.9720 H   0  0  0  0  0  0  0  0  0  0  0  0  # atno 3523 bound_to 346 
   -7.1553   26.1706   63.1598 H   0  0  0  0  0  0  0  0  0  0  0  0  # atno 3576 bound_to 185 
   -6.8018   28.7124   65.3838 H   0  0  0  0  0  0  0  0  0  0  0  0  # atno 3663 bound_to 154 
   -2.0255   23.5259   72.0357 H   0  0  0  0  0  0  0  0  0  0  0  0  # atno 3793 bound_to 171 
   -6.2104   23.8021   71.8339 H   0  0  0  0  0  0  0  0  0  0  0  0  # atno 3800 bound_to 178 
  -14.9728    8.8768   77.1385 H   0  0  0  0  0  0  0  0  0  0  0  0  # atno 3973 bound_to 1471
  -19.9342   13.9239   63.8630 H   0  0  0  0  0  0  0  0  0  0  0  0  # atno 4183 bound_to 1244
  -13.1434   15.1110   60.8233 H   0  0  0  0  0  0  0  0  0  0  0  0  # atno 4268 bound_to 1114
  -15.7778   18.5874   58.7215 H   0  0  0  0  0  0  0  0  0  0  0  0  # atno 4280 bound_to 1130
  -10.4026   14.8950   57.0239 H   0  0  0  0  0  0  0  0  0  0  0  0  # atno 4409 bound_to 924 
  -15.5910    8.4032   78.5673 LP  0  0  0  0  0  0  0  0  0  0  0  0  # atno 4696 bound_to 1471
  -15.4731    7.3406   77.3330 LP  0  0  0  0  0  0  0  0  0  0  0  0  # atno 4697 bound_to 1471
  -14.9026   16.9508   76.2688 LP  0  0  0  0  0  0  0  0  0  0  0  0  # atno 4731 bound_to 414 
  -13.8677   18.0883   75.7195 LP  0  0  0  0  0  0  0  0  0  0  0  0  # atno 4732 bound_to 414 
  -14.1676   16.1520   61.5413 LP  0  0  0  0  0  0  0  0  0  0  0  0  # atno 4733 bound_to 1114
  -12.6046   16.0858   62.0096 LP  0  0  0  0  0  0  0  0  0  0  0  0  # atno 4734 bound_to 1114
  -11.8580   15.3194   56.4328 LP  0  0  0  0  0  0  0  0  0  0  0  0  # atno 4763 bound_to 924 
  -11.6104   15.2743   58.0462 LP  0  0  0  0  0  0  0  0  0  0  0  0  # atno 4764 bound_to 924 
  -20.4615   12.6922   62.9396 LP  0  0  0  0  0  0  0  0  0  0  0  0  # atno 4771 bound_to 1244
  -20.9746   12.8372   64.4831 LP  0  0  0  0  0  0  0  0  0  0  0  0  # atno 4772 bound_to 1244
   -6.7915   22.3225   71.4856 LP  0  0  0  0  0  0  0  0  0  0  0  0  # atno 4775 bound_to 178 
   -7.6184   23.3127   72.4868 LP  0  0  0  0  0  0  0  0  0  0  0  0  # atno 4776 bound_to 178 
   -3.5397   24.1123   71.9302 LP  0  0  0  0  0  0  0  0  0  0  0  0  # atno 4779 bound_to 171 
   -2.4008   24.9302   72.7671 LP  0  0  0  0  0  0  0  0  0  0  0  0  # atno 4780 bound_to 171 
   -8.4855   26.5939   63.9961 LP  0  0  0  0  0  0  0  0  0  0  0  0  # atno 4783 bound_to 185 
   -8.3164   25.0665   63.4437 LP  0  0  0  0  0  0  0  0  0  0  0  0  # atno 4784 bound_to 185 
   -2.7348   16.7326   72.5429 LP  0  0  0  0  0  0  0  0  0  0  0  0  # atno 4785 bound_to 346 
   -1.9003   18.0310   73.0762 LP  0  0  0  0  0  0  0  0  0  0  0  0  # atno 4786 bound_to 346 
   -3.3453   20.4501   74.8879 LP  0  0  0  0  0  0  0  0  0  0  0  0  # atno 4787 bound_to 339 
   -2.6425   21.6953   75.6767 LP  0  0  0  0  0  0  0  0  0  0  0  0  # atno 4788 bound_to 339 
   -7.7055   29.9952   64.9525 LP  0  0  0  0  0  0  0  0  0  0  0  0  # atno 4797 bound_to 154 
   -8.4248   28.5936   65.3826 LP  0  0  0  0  0  0  0  0  0  0  0  0  # atno 4798 bound_to 154 

> <Gold.Score>
     Score     S(PLP)   S(hbond)     S(cho)   S(metal)  DE(clash)   DE(tors)     intcor
     35.06     -29.34       1.00       1.00       0.00       0.00       0.15       0.02

> <Gold.PLP.Fitness>
35.0552

> <Gold.PLP.PLP>
-29.3403

> <Gold.PLP.part.hbond>
-1.4140

> <Gold.PLP.part.metal>
0.0000

> <Gold.PLP.part.buried>
-3.5973

> <Gold.PLP.part.nonpolar>
-25.1227

> <Gold.PLP.part.repulsive>
0.1074

> <Gold.PLP.ligand.clash>
0.0000

> <Gold.PLP.ligand.torsion>
0.1535

> <Gold.PLP.Chemscore.Hbond>
1.0000

> <Gold.PLP.Chemscore.CHOScore>
1.0000

> <Gold.PLP.Chemscore.Metal>
0.0000

> <Gold.Chemscore.Hbonds>
donor molecule, donor type, donor heavy atom, donor atom, acceptor molecule, acceptor atom, score
      P1  H  1281  4132       L1     1  1.00
      L1  C     6    16       P1  1262  1.00

> <Gold.PLP.Chemscore.Internal.Correction>
0.0219

#       Name:                unknown
#       Creating user name   williammccorkindale
#       Creation time:       Tue Jun  7 14:55:38 2022


#       File generated by GOLD software.
#

@<TRIPOS>MOLECULE
unknown|prepared_Mpro-x0874|mol2|1|dock2
    28    29     1
SMALL
NO_CHARGES


@<TRIPOS>ATOM
      1 O1         -12.2851  11.4680  68.2101 O.2            1 RES1               0.0000
      2 C2         -11.5563  12.0956  68.9948 C.2            1 RES1               0.0000
      3 C3         -10.9216  13.3381  68.6180 C.3            1 RES1               0.0000
      4 C4         -11.4518  14.6185  69.0785 C.3            1 RES1               0.0000
      5 C5         -11.9830  14.6926  70.4720 C.2            1 RES1               0.0000
      6 C6         -11.4027  15.5457  71.3849 C.2            1 RES1               0.0000
      7 S7         -12.3266  15.3256  72.8023 S.3            1 RES1               0.0000
      8 C8         -13.4248  14.1635  72.2153 C.2            1 RES1               0.0000
      9 C9         -13.0330  13.9799  70.9150 C.2            1 RES1               0.0000
     10 C10        -12.4520  15.0311  68.0363 C.3            1 RES1               0.0000
     11 C11        -11.6288  14.7560  66.7697 C.3            1 RES1               0.0000
     12 C12        -11.0115  13.4263  67.0838 C.3            1 RES1               0.0000
     13 N13        -11.3548  11.5605  70.2929 N.am           1 RES1               0.0000
     14 H14         -9.8089  13.3064  68.8749 H              1 RES1               0.0000
     15 H15        -10.5919  15.3540  68.9699 H              1 RES1               0.0000
     16 H16        -10.5370  16.2147  71.2237 H              1 RES1               0.0000
     17 H17        -14.2488  13.6874  72.7740 H              1 RES1               0.0000
     18 H18        -13.6273  13.2497  70.3100 H              1 RES1               0.0000
     19 H19        -12.7517  16.0883  68.0950 H              1 RES1               0.0000
     20 H20        -13.3718  14.4260  68.0534 H              1 RES1               0.0000
     21 H21        -12.2419  14.7691  65.8678 H              1 RES1               0.0000
     22 H22        -10.8156  15.5091  66.7726 H              1 RES1               0.0000
     23 H23        -11.6673  12.6453  66.6618 H              1 RES1               0.0000
     24 H24        -10.0097  13.3004  66.6253 H              1 RES1               0.0000
     25 H25        -11.7960  10.6602  70.6103 H              1 RES1               0.0000
     26 H26        -10.7544  12.0380  71.0010 H              1 RES1               0.0000
     27 ****       -12.4467  11.8197  67.2880 LP             1 RES1               0.0000
     28 ****       -12.7105  10.6107  68.4999 LP             1 RES1               0.0000
@<TRIPOS>BOND
    1    1    2 2     
    2    2    3 1     
    3    3    4 1     
    4    4    5 1     
    5    5    6 2     
    6    6    7 1     
    7    7    8 1     
    8    8    9 2     
    9    4   10 1     
   10   10   11 1     
   11   11   12 1     
   12    2   13 am    
   13   12    3 1     
   14    9    5 1     
   15    3   14 1     
   16    4   15 1     
   17    6   16 1     
   18    8   17 1     
   19    9   18 1     
   20   10   19 1     
   21   10   20 1     
   22   11   21 1     
   23   11   22 1     
   24   12   23 1     
   25   12   24 1     
   26   13   25 1     
   27   13   26 1     
   28    1   27 1     
   29    1   28 1     
@<TRIPOS>SUBSTRUCTURE
      1 RES1           1
@<TRIPOS>SET
LONE_PAIRS      STATIC     ATOMS    <user>   **** ""
2 27 28
DONOR_HYDROGENS      STATIC     ATOMS    <user>   **** ""
2 25 26
ATOM$BLUE        STATIC     ATOMS    COLORGROUP SYSTEM
2 27 28
ATOM$RED        STATIC     ATOMS    COLORGROUP SYSTEM
2 25 26
@<TRIPOS>COMMENT
> <Gold.Version>
2022.1.0

> <Gold.Id.Protein>
6LU7|6LU7_protein|mol2

> <Gold.Protein.RotatedTorsions>
[ 3973 1471 1470 1467 ] final -118.31 input   60.00 | X-H torsion
[ 3372  414  413  411 ] final  -67.93 input   60.00 | X-H torsion
[ 4268 1114 1113 1110 ] final  -78.59 input   59.99 | X-H torsion
[ 4409  924  923  921 ] final   18.82 input   59.99 | X-H torsion
[ 4183 1244 1243 1241 ] final  -49.51 input   59.99 | X-H torsion
[ 3800  178  177  174 ] final -153.43 input   60.00 | X-H torsion
[ 3793  171  170  167 ] final -107.27 input   60.00 | X-H torsion
[ 3576  185  184  181 ] final  150.74 input   60.00 | X-H torsion
[ 3523  346  345  342 ] final  -78.26 input   60.01 | X-H torsion
[ 3515  339  338  335 ] final   12.47 input   60.00 | X-H torsion
[ 3663  154  153  150 ] final -158.29 input   60.00 | X-H torsion
[ 4280 1130 1129 1126 ] final   31.95 input   60.00 | X-H torsion

> <Gold.Protein.ActiveResidues>
 VAL20   THR21   CYS22   GLY23   THR24   THR25   THR26   LEU27   ASN28   PRO39  
 ARG40   HIS41   VAL42   CYS44   THR45   SER46   ASP48   MET49   LEU50   PRO52  
 TYR54   TYR118  ASN119  ILE136  GLY138  SER139  PHE140  LEU141  ASN142  GLY143 
 SER144  CYS145  GLY146  SER147  TYR161  HIS163  HIS164  MET165  GLU166  LEU167 
 PRO168  THR169  GLY170  VAL171  HIS172  ALA173  PHE181  PHE185  VAL186  ASP187 
 ARG188  GLN189  THR190  ALA191  GLN192  ALA193 

> <Gold.Protein.RotatedAtoms>
  -15.2399   17.9795   74.9783 H   0  0  0  0  0  0  0  0  0  0  0  0  # atno 3372 bound_to 414 
   -3.6607   20.9935   74.2633 H   0  0  0  0  0  0  0  0  0  0  0  0  # atno 3515 bound_to 339 
   -3.2268   16.8905   72.5635 H   0  0  0  0  0  0  0  0  0  0  0  0  # atno 3523 bound_to 346 
   -7.2998   26.5580   63.3542 H   0  0  0  0  0  0  0  0  0  0  0  0  # atno 3576 bound_to 185 
   -6.7225   29.2724   65.2073 H   0  0  0  0  0  0  0  0  0  0  0  0  # atno 3663 bound_to 154 
   -2.1188   24.7649   72.7509 H   0  0  0  0  0  0  0  0  0  0  0  0  # atno 3793 bound_to 171 
   -7.6211   22.6306   72.1549 H   0  0  0  0  0  0  0  0  0  0  0  0  # atno 3800 bound_to 178 
  -15.2691    9.0214   78.1363 H   0  0  0  0  0  0  0  0  0  0  0  0  # atno 3973 bound_to 1471
  -20.6375   13.3931   64.6485 H   0  0  0  0  0  0  0  0  0  0  0  0  # atno 4183 bound_to 1244
  -12.3980   15.6878   61.6696 H   0  0  0  0  0  0  0  0  0  0  0  0  # atno 4268 bound_to 1114
  -15.8241   20.1487   59.4606 H   0  0  0  0  0  0  0  0  0  0  0  0  # atno 4280 bound_to 1130
  -11.4536   15.1967   56.2465 H   0  0  0  0  0  0  0  0  0  0  0  0  # atno 4409 bound_to 924 
  -15.7049    7.4538   78.1138 LP  0  0  0  0  0  0  0  0  0  0  0  0  # atno 4696 bound_to 1471
  -15.0608    8.1443   76.7815 LP  0  0  0  0  0  0  0  0  0  0  0  0  # atno 4697 bound_to 1471
  -15.0091   16.9424   76.2109 LP  0  0  0  0  0  0  0  0  0  0  0  0  # atno 4731 bound_to 414 
  -13.8432   18.0143   75.8127 LP  0  0  0  0  0  0  0  0  0  0  0  0  # atno 4732 bound_to 414 
  -13.6876   15.2478   60.7801 LP  0  0  0  0  0  0  0  0  0  0  0  0  # atno 4733 bound_to 1114
  -13.8353   16.4091   61.9185 LP  0  0  0  0  0  0  0  0  0  0  0  0  # atno 4734 bound_to 1114
  -11.9734   15.3786   57.7778 LP  0  0  0  0  0  0  0  0  0  0  0  0  # atno 4763 bound_to 924 
  -10.4365   14.9112   57.4842 LP  0  0  0  0  0  0  0  0  0  0  0  0  # atno 4764 bound_to 924 
  -19.8652   13.6746   63.2441 LP  0  0  0  0  0  0  0  0  0  0  0  0  # atno 4771 bound_to 1244
  -20.8625   12.3895   63.3875 LP  0  0  0  0  0  0  0  0  0  0  0  0  # atno 4772 bound_to 1244
   -6.7746   24.0134   72.2948 LP  0  0  0  0  0  0  0  0  0  0  0  0  # atno 4775 bound_to 178 
   -6.2146   22.8015   71.3544 LP  0  0  0  0  0  0  0  0  0  0  0  0  # atno 4776 bound_to 178 
   -2.2855   23.3986   71.8830 LP  0  0  0  0  0  0  0  0  0  0  0  0  # atno 4779 bound_to 171 
   -3.5611   24.3961   72.0940 LP  0  0  0  0  0  0  0  0  0  0  0  0  # atno 4780 bound_to 171 
   -8.7444   26.2142   64.0196 LP  0  0  0  0  0  0  0  0  0  0  0  0  # atno 4783 bound_to 185 
   -7.9121   25.0560   63.2244 LP  0  0  0  0  0  0  0  0  0  0  0  0  # atno 4784 bound_to 185 
   -1.7821   17.5527   72.9133 LP  0  0  0  0  0  0  0  0  0  0  0  0  # atno 4785 bound_to 346 
   -3.1514   18.4188   73.1172 LP  0  0  0  0  0  0  0  0  0  0  0  0  # atno 4786 bound_to 346 
   -2.8066   20.8225   75.6378 LP  0  0  0  0  0  0  0  0  0  0  0  0  # atno 4787 bound_to 339 
   -2.9974   22.3005   74.9703 LP  0  0  0  0  0  0  0  0  0  0  0  0  # atno 4788 bound_to 339 
   -8.2573   29.7758   65.0099 LP  0  0  0  0  0  0  0  0  0  0  0  0  # atno 4797 bound_to 154 
   -7.9528   28.2491   65.5030 LP  0  0  0  0  0  0  0  0  0  0  0  0  # atno 4798 bound_to 154 

> <Gold.Score>
     Score     S(PLP)   S(hbond)     S(cho)   S(metal)  DE(clash)   DE(tors)     intcor
     35.73     -30.73       1.95       0.00       0.00       0.00       0.43       0.02

> <Gold.PLP.Fitness>
35.7331

> <Gold.PLP.PLP>
-30.7349

> <Gold.PLP.part.hbond>
-2.0000

> <Gold.PLP.part.metal>
0.0000

> <Gold.PLP.part.buried>
-0.7908

> <Gold.PLP.part.nonpolar>
-29.1847

> <Gold.PLP.part.repulsive>
0.1252

> <Gold.PLP.ligand.clash>
0.0000

> <Gold.PLP.ligand.torsion>
0.4350

> <Gold.PLP.Chemscore.Hbond>
1.9500

> <Gold.PLP.Chemscore.CHOScore>
0.0000

> <Gold.PLP.Chemscore.Metal>
0.0000

> <Gold.Chemscore.Hbonds>
donor molecule, donor type, donor heavy atom, donor atom, acceptor molecule, acceptor atom, score
      L1  H    13    26       P1  1464  0.95
      P1  H  1281  4132       L1     1  1.00

> <Gold.PLP.Chemscore.Internal.Correction>
0.0182

#       Name:                unknown
#       Creating user name   williammccorkindale
#       Creation time:       Tue Jun  7 14:55:38 2022


#       File generated by GOLD software.
#

@<TRIPOS>MOLECULE
unknown|prepared_Mpro-x1249|mol2|1|dock2
    38    39     1
SMALL
NO_CHARGES


@<TRIPOS>ATOM
      1 O1          -9.5133  13.9091  67.5278 O.2            1 RES1               0.0000
      2 C2          -9.9011  15.0372  67.6302 C.2            1 RES1               0.0000
      3 N3         -10.9009  15.3929  68.6880 N.am           1 RES1               0.0000
      4 C4         -11.5429  14.3649  69.4661 C.3            1 RES1               0.0000
      5 C5         -11.9961  14.9812  70.7384 C.ar           1 RES1               0.0000
      6 C6         -12.8538  14.1015  71.6232 C.ar           1 RES1               0.0000
      7 C7         -13.0729  14.5260  72.9487 C.ar           1 RES1               0.0000
      8 C8         -12.4707  15.7643  73.4697 C.ar           1 RES1               0.0000
      9 C9         -12.5286  16.1314  74.8134 C.1            1 RES1               0.0000
     10 N10        -12.5642  16.3596  75.6879 N.1            1 RES1               0.0000
     11 C11        -11.7689  16.4889  72.5027 C.ar           1 RES1               0.0000
     12 C12        -11.6059  16.0355  71.2400 C.ar           1 RES1               0.0000
     13 N13         -9.6553  16.2674  66.9124 N.am           1 RES1               0.0000
     14 C14         -8.4100  16.3884  66.0986 C.3            1 RES1               0.0000
     15 C15         -7.6715  17.5631  66.7243 C.3            1 RES1               0.0000
     16 O16         -8.3534  18.3601  67.5318 O.3            1 RES1               0.0000
     17 C17         -9.7012  18.4142  67.6879 C.3            1 RES1               0.0000
     18 C18        -10.4974  17.4057  66.9306 C.3            1 RES1               0.0000
     19 H19        -10.9542  16.3328  68.9899 H              1 RES1               0.0000
     20 H20        -10.8004  13.5422  69.6779 H              1 RES1               0.0000
     21 H21        -12.4389  13.9041  68.9978 H              1 RES1               0.0000
     22 H22        -13.1921  13.2155  71.2192 H              1 RES1               0.0000
     23 H23        -13.7003  13.9219  73.4856 H              1 RES1               0.0000
     24 H24        -11.2348  17.4176  72.7886 H              1 RES1               0.0000
     25 H25        -11.1744  16.7825  70.4430 H              1 RES1               0.0000
     26 H26         -7.8658  15.4426  66.2062 H              1 RES1               0.0000
     27 H27         -8.6413  16.5348  65.0721 H              1 RES1               0.0000
     28 H28         -6.8199  17.1017  67.3484 H              1 RES1               0.0000
     29 H29         -7.0359  18.1007  65.9082 H              1 RES1               0.0000
     30 H30        -10.1381  19.5122  67.4790 H              1 RES1               0.0000
     31 H31        -10.0329  18.3332  68.7607 H              1 RES1               0.0000
     32 H32        -10.5616  17.7655  65.8286 H              1 RES1               0.0000
     33 H33        -11.4339  17.1740  67.3243 H              1 RES1               0.0000
     34 ****        -9.8567  13.2040  68.1484 LP             1 RES1               0.0000
     35 ****        -8.8460  13.6718  66.8218 LP             1 RES1               0.0000
     36 ****       -12.6036  16.6119  76.6548 LP             1 RES1               0.0000
     37 ****        -8.0891  19.2859  67.2616 LP             1 RES1               0.0000
     38 ****        -7.9970  18.1651  68.4456 LP             1 RES1               0.0000
@<TRIPOS>BOND
    1    1    2 2     
    2    2    3 am    
    3    3    4 1     
    4    4    5 1     
    5    5    6 ar    
    6    6    7 ar    
    7    7    8 ar    
    8    8    9 1     
    9    9   10 3     
   10    8   11 ar    
   11   11   12 ar    
   12    2   13 am    
   13   13   14 1     
   14   14   15 1     
   15   15   16 1     
   16   16   17 1     
   17   17   18 1     
   18    5   12 ar    
   19   18   13 1     
   20    3   19 1     
   21    4   20 1     
   22    4   21 1     
   23    6   22 1     
   24    7   23 1     
   25   11   24 1     
   26   12   25 1     
   27   14   26 1     
   28   14   27 1     
   29   15   28 1     
   30   15   29 1     
   31   17   30 1     
   32   17   31 1     
   33   18   32 1     
   34   18   33 1     
   35    1   34 1     
   36    1   35 1     
   37   10   36 1     
   38   16   37 1     
   39   16   38 1     
@<TRIPOS>SUBSTRUCTURE
      1 RES1           1
@<TRIPOS>SET
LONE_PAIRS      STATIC     ATOMS    <user>   **** ""
5 34 35 36 37 38
DONOR_HYDROGENS      STATIC     ATOMS    <user>   **** ""
1 19
ATOM$BLUE        STATIC     ATOMS    COLORGROUP SYSTEM
5 34 35 36 37 38
ATOM$RED        STATIC     ATOMS    COLORGROUP SYSTEM
1 19
@<TRIPOS>COMMENT
> <Gold.Version>
2022.1.0

> <Gold.Id.Protein>
6LU7|6LU7_protein|mol2

> <Gold.Protein.RotatedTorsions>
[ 3973 1471 1470 1467 ] final   88.28 input   60.00 | X-H torsion
[ 3372  414  413  411 ] final   86.73 input   60.00 | X-H torsion
[ 4268 1114 1113 1110 ] final  -63.59 input   59.99 | X-H torsion
[ 4409  924  923  921 ] final  -34.80 input   59.99 | X-H torsion
[ 4183 1244 1243 1241 ] final   21.07 input   59.99 | X-H torsion
[ 3800  178  177  174 ] final  102.23 input   60.00 | X-H torsion
[ 3793  171  170  167 ] final -174.48 input   60.00 | X-H torsion
[ 3576  185  184  181 ] final   26.75 input   60.00 | X-H torsion
[ 3523  346  345  342 ] final  -86.59 input   60.01 | X-H torsion
[ 3515  339  338  335 ] final  -50.82 input   60.00 | X-H torsion
[ 3663  154  153  150 ] final  158.16 input   60.00 | X-H torsion
[ 4280 1130 1129 1126 ] final  120.52 input   60.00 | X-H torsion

> <Gold.Protein.ActiveResidues>
 VAL20   THR21   CYS22   GLY23   THR24   THR25   THR26   LEU27   ASN28   PRO39  
 ARG40   HIS41   VAL42   CYS44   THR45   SER46   ASP48   MET49   LEU50   PRO52  
 TYR54   TYR118  ASN119  ILE136  GLY138  SER139  PHE140  LEU141  ASN142  GLY143 
 SER144  CYS145  GLY146  SER147  TYR161  HIS163  HIS164  MET165  GLU166  LEU167 
 PRO168  THR169  GLY170  VAL171  HIS172  ALA173  PHE181  PHE185  VAL186  ASP187 
 ARG188  GLN189  THR190  ALA191  GLN192  ALA193 

> <Gold.Protein.RotatedAtoms>
  -13.9246   17.6100   76.1911 H   0  0  0  0  0  0  0  0  0  0  0  0  # atno 3372 bound_to 414 
   -3.2859   20.4447   74.9867 H   0  0  0  0  0  0  0  0  0  0  0  0  # atno 3515 bound_to 339 
   -3.1079   16.8263   72.5497 H   0  0  0  0  0  0  0  0  0  0  0  0  # atno 3523 bound_to 346 
   -8.7607   26.1510   64.0120 H   0  0  0  0  0  0  0  0  0  0  0  0  # atno 3576 bound_to 185 
   -7.0959   29.8280   65.0219 H   0  0  0  0  0  0  0  0  0  0  0  0  # atno 3663 bound_to 154 
   -1.7722   23.8847   72.3280 H   0  0  0  0  0  0  0  0  0  0  0  0  # atno 3793 bound_to 171 
   -6.9984   23.9491   72.4017 H   0  0  0  0  0  0  0  0  0  0  0  0  # atno 3800 bound_to 178 
  -15.5751    7.3035   77.6115 H   0  0  0  0  0  0  0  0  0  0  0  0  # atno 3973 bound_to 1471
  -21.0561   12.5386   64.1341 H   0  0  0  0  0  0  0  0  0  0  0  0  # atno 4183 bound_to 1244
  -12.4508   15.8633   61.8311 H   0  0  0  0  0  0  0  0  0  0  0  0  # atno 4268 bound_to 1114
  -15.5428   18.8765   59.3536 H   0  0  0  0  0  0  0  0  0  0  0  0  # atno 4280 bound_to 1130
  -12.0955   15.3990   56.7566 H   0  0  0  0  0  0  0  0  0  0  0  0  # atno 4409 bound_to 924 
  -14.9698    8.6554   76.9376 LP  0  0  0  0  0  0  0  0  0  0  0  0  # atno 4696 bound_to 1471
  -15.4878    8.6729   78.4862 LP  0  0  0  0  0  0  0  0  0  0  0  0  # atno 4697 bound_to 1471
  -14.7634   18.2728   74.9642 LP  0  0  0  0  0  0  0  0  0  0  0  0  # atno 4731 bound_to 414 
  -15.4134   17.0560   75.8381 LP  0  0  0  0  0  0  0  0  0  0  0  0  # atno 4732 bound_to 414 
  -13.4590   15.1578   60.7664 LP  0  0  0  0  0  0  0  0  0  0  0  0  # atno 4733 bound_to 1114
  -14.0107   16.3223   61.7695 LP  0  0  0  0  0  0  0  0  0  0  0  0  # atno 4734 bound_to 1114
  -11.2211   15.1584   58.1077 LP  0  0  0  0  0  0  0  0  0  0  0  0  # atno 4763 bound_to 924 
  -10.5423   14.9277   56.6405 LP  0  0  0  0  0  0  0  0  0  0  0  0  # atno 4764 bound_to 924 
  -20.1360   13.8727   64.2805 LP  0  0  0  0  0  0  0  0  0  0  0  0  # atno 4771 bound_to 1244
  -20.1702   13.0519   62.8692 LP  0  0  0  0  0  0  0  0  0  0  0  0  # atno 4772 bound_to 1244
   -6.1064   23.0306   71.3973 LP  0  0  0  0  0  0  0  0  0  0  0  0  # atno 4775 bound_to 178 
   -7.5099   22.4566   72.0034 LP  0  0  0  0  0  0  0  0  0  0  0  0  # atno 4776 bound_to 178 
   -3.2807   23.6840   71.7518 LP  0  0  0  0  0  0  0  0  0  0  0  0  # atno 4779 bound_to 171 
   -2.9150   24.9971   72.6511 LP  0  0  0  0  0  0  0  0  0  0  0  0  # atno 4780 bound_to 171 
   -7.8541   25.0721   63.1983 LP  0  0  0  0  0  0  0  0  0  0  0  0  # atno 4783 bound_to 185 
   -7.3310   26.6080   63.3833 LP  0  0  0  0  0  0  0  0  0  0  0  0  # atno 4784 bound_to 185 
   -1.7854   17.6815   72.9595 LP  0  0  0  0  0  0  0  0  0  0  0  0  # atno 4785 bound_to 346 
   -3.2679   18.3547   73.0849 LP  0  0  0  0  0  0  0  0  0  0  0  0  # atno 4786 bound_to 346 
   -2.6558   21.8002   75.6297 LP  0  0  0  0  0  0  0  0  0  0  0  0  # atno 4787 bound_to 339 
   -3.5257   21.8755   74.2498 LP  0  0  0  0  0  0  0  0  0  0  0  0  # atno 4788 bound_to 339 
   -8.5800   29.1823   65.1916 LP  0  0  0  0  0  0  0  0  0  0  0  0  # atno 4797 bound_to 154 
   -7.2541   28.2830   65.5080 LP  0  0  0  0  0  0  0  0  0  0  0  0  # atno 4798 bound_to 154 

> <Gold.Score>
     Score     S(PLP)   S(hbond)     S(cho)   S(metal)  DE(clash)   DE(tors)     intcor
     47.04     -46.57       0.75       0.00       0.00       2.64       0.50       1.85

> <Gold.PLP.Fitness>
47.0372

> <Gold.PLP.PLP>
-46.5703

> <Gold.PLP.part.hbond>
-1.0000

> <Gold.PLP.part.metal>
0.0000

> <Gold.PLP.part.buried>
-4.8341

> <Gold.PLP.part.nonpolar>
-41.8894

> <Gold.PLP.part.repulsive>
0.5719

> <Gold.PLP.ligand.clash>
2.6440

> <Gold.PLP.ligand.torsion>
0.4984

> <Gold.PLP.Chemscore.Hbond>
0.7520

> <Gold.PLP.Chemscore.CHOScore>
0.0000

> <Gold.PLP.Chemscore.Metal>
0.0000

> <Gold.Chemscore.Hbonds>
donor molecule, donor type, donor heavy atom, donor atom, acceptor molecule, acceptor atom, score
      P1  H   414  3372       L1    10  0.75

> <Gold.PLP.Chemscore.Internal.Correction>
1.8519

#       Name:                unknown
#       Creating user name   williammccorkindale
#       Creation time:       Tue Jun  7 14:55:38 2022


#       File generated by GOLD software.
#

@<TRIPOS>MOLECULE
unknown|prepared_Mpro-x1249|mol2|1|dock1
    38    39     1
SMALL
NO_CHARGES


@<TRIPOS>ATOM
      1 O1          -9.5956  15.6109  66.6789 O.2            1 RES1               0.0000
      2 C2         -10.0813  16.6024  67.1421 C.2            1 RES1               0.0000
      3 N3         -11.1985  16.4964  68.1349 N.am           1 RES1               0.0000
      4 C4         -11.8230  15.2267  68.4038 C.3            1 RES1               0.0000
      5 C5         -11.9806  15.1060  69.8750 C.ar           1 RES1               0.0000
      6 C6         -10.8047  15.5831  70.7010 C.ar           1 RES1               0.0000
      7 C7         -11.0063  15.7537  72.0849 C.ar           1 RES1               0.0000
      8 C8         -12.3170  15.5056  72.7080 C.ar           1 RES1               0.0000
      9 C9         -12.5987  15.8183  74.0371 C.1            1 RES1               0.0000
     10 N10        -12.7901  16.0150  74.8990 N.1            1 RES1               0.0000
     11 C11        -13.2689  15.0045  71.8160 C.ar           1 RES1               0.0000
     12 C12        -13.0100  14.8480  70.4989 C.ar           1 RES1               0.0000
     13 N13         -9.8719  18.0206  66.9575 N.am           1 RES1               0.0000
     14 C14         -8.5697  18.4882  66.3979 C.3            1 RES1               0.0000
     15 C15         -7.9940  19.3760  67.4921 C.3            1 RES1               0.0000
     16 O16         -8.8130  19.7857  68.4478 O.3            1 RES1               0.0000
     17 C17        -10.1694  19.7208  68.4519 C.3            1 RES1               0.0000
     18 C18        -10.8038  19.0337  67.2900 C.3            1 RES1               0.0000
     19 H19        -11.3550  17.2531  68.7516 H              1 RES1               0.0000
     20 H20        -11.1614  14.3989  68.0166 H              1 RES1               0.0000
     21 H21        -12.8335  15.0911  67.9623 H              1 RES1               0.0000
     22 H22         -9.9330  15.8014  70.1959 H              1 RES1               0.0000
     23 H23        -10.1669  16.0273  72.6018 H              1 RES1               0.0000
     24 H24        -14.3063  14.8209  72.1616 H              1 RES1               0.0000
     25 H25        -13.7887  14.2472  69.8570 H              1 RES1               0.0000
     26 H26         -7.9614  17.5942  66.2165 H              1 RES1               0.0000
     27 H27         -8.7144  18.9961  65.4760 H              1 RES1               0.0000
     28 H28         -7.1697  18.7519  68.0009 H              1 RES1               0.0000
     29 H29         -7.3310  20.2050  67.0101 H              1 RES1               0.0000
     30 H30        -10.6744  20.7981  68.6080 H              1 RES1               0.0000
     31 H31        -10.5931  19.2325  69.3735 H              1 RES1               0.0000
     32 H32        -10.7933  19.7746  66.3961 H              1 RES1               0.0000
     33 H33        -11.7508  18.6328  67.4579 H              1 RES1               0.0000
     34 ****        -9.9356  14.7118  66.9547 LP             1 RES1               0.0000
     35 ****        -8.8500  15.6818  66.0163 LP             1 RES1               0.0000
     36 ****       -13.0017  16.2325  75.8518 LP             1 RES1               0.0000
     37 ****        -8.6023  20.7559  68.5677 LP             1 RES1               0.0000
     38 ****        -8.5297  19.2800  69.2627 LP             1 RES1               0.0000
@<TRIPOS>BOND
    1    1    2 2     
    2    2    3 am    
    3    3    4 1     
    4    4    5 1     
    5    5    6 ar    
    6    6    7 ar    
    7    7    8 ar    
    8    8    9 1     
    9    9   10 3     
   10    8   11 ar    
   11   11   12 ar    
   12    2   13 am    
   13   13   14 1     
   14   14   15 1     
   15   15   16 1     
   16   16   17 1     
   17   17   18 1     
   18    5   12 ar    
   19   18   13 1     
   20    3   19 1     
   21    4   20 1     
   22    4   21 1     
   23    6   22 1     
   24    7   23 1     
   25   11   24 1     
   26   12   25 1     
   27   14   26 1     
   28   14   27 1     
   29   15   28 1     
   30   15   29 1     
   31   17   30 1     
   32   17   31 1     
   33   18   32 1     
   34   18   33 1     
   35    1   34 1     
   36    1   35 1     
   37   10   36 1     
   38   16   37 1     
   39   16   38 1     
@<TRIPOS>SUBSTRUCTURE
      1 RES1           1
@<TRIPOS>SET
LONE_PAIRS      STATIC     ATOMS    <user>   **** ""
5 34 35 36 37 38
DONOR_HYDROGENS      STATIC     ATOMS    <user>   **** ""
1 19
ATOM$BLUE        STATIC     ATOMS    COLORGROUP SYSTEM
5 34 35 36 37 38
ATOM$RED        STATIC     ATOMS    COLORGROUP SYSTEM
1 19
@<TRIPOS>COMMENT
> <Gold.Version>
2022.1.0

> <Gold.Id.Protein>
6LU7|6LU7_protein|mol2

> <Gold.Protein.RotatedTorsions>
[ 3973 1471 1470 1467 ] final -160.20 input   60.00 | X-H torsion
[ 3372  414  413  411 ] final -148.78 input   60.00 | X-H torsion
[ 4268 1114 1113 1110 ] final  129.58 input   59.99 | X-H torsion
[ 4409  924  923  921 ] final -174.58 input   59.99 | X-H torsion
[ 4183 1244 1243 1241 ] final  -97.89 input   59.99 | X-H torsion
[ 3800  178  177  174 ] final  -41.16 input   60.00 | X-H torsion
[ 3793  171  170  167 ] final   83.47 input   60.00 | X-H torsion
[ 3576  185  184  181 ] final  142.25 input   60.00 | X-H torsion
[ 3523  346  345  342 ] final   33.02 input   60.01 | X-H torsion
[ 3515  339  338  335 ] final  126.10 input   60.00 | X-H torsion
[ 3663  154  153  150 ] final -125.18 input   60.00 | X-H torsion
[ 4280 1130 1129 1126 ] final   80.82 input   60.00 | X-H torsion

> <Gold.Protein.ActiveResidues>
 VAL20   THR21   CYS22   GLY23   THR24   THR25   THR26   LEU27   ASN28   PRO39  
 ARG40   HIS41   VAL42   CYS44   THR45   SER46   ASP48   MET49   LEU50   PRO52  
 TYR54   TYR118  ASN119  ILE136  GLY138  SER139  PHE140  LEU141  ASN142  GLY143 
 SER144  CYS145  GLY146  SER147  TYR161  HIS163  HIS164  MET165  GLU166  LEU167 
 PRO168  THR169  GLY170  VAL171  HIS172  ALA173  PHE181  PHE185  VAL186  ASP187 
 ARG188  GLN189  THR190  ALA191  GLN192  ALA193 

> <Gold.Protein.RotatedAtoms>
  -15.4451   17.0934   75.7826 H   0  0  0  0  0  0  0  0  0  0  0  0  # atno 3372 bound_to 414 
   -3.0559   22.2993   74.8835 H   0  0  0  0  0  0  0  0  0  0  0  0  # atno 3515 bound_to 339 
   -3.2694   18.3454   73.0840 H   0  0  0  0  0  0  0  0  0  0  0  0  # atno 3523 bound_to 346 
   -7.3777   26.6494   63.4235 H   0  0  0  0  0  0  0  0  0  0  0  0  # atno 3576 bound_to 185 
   -6.7764   28.7663   65.3672 H   0  0  0  0  0  0  0  0  0  0  0  0  # atno 3663 bound_to 154 
   -3.0425   23.5159   71.7206 H   0  0  0  0  0  0  0  0  0  0  0  0  # atno 3793 bound_to 171 
   -6.2918   22.7009   71.3514 H   0  0  0  0  0  0  0  0  0  0  0  0  # atno 3800 bound_to 178 
  -15.5346    8.5492   78.5293 H   0  0  0  0  0  0  0  0  0  0  0  0  # atno 3973 bound_to 1471
  -20.1494   13.8635   64.2893 H   0  0  0  0  0  0  0  0  0  0  0  0  # atno 4183 bound_to 1244
  -14.0636   15.5515   60.9587 H   0  0  0  0  0  0  0  0  0  0  0  0  # atno 4268 bound_to 1114
  -15.5525   19.4454   59.6375 H   0  0  0  0  0  0  0  0  0  0  0  0  # atno 4280 bound_to 1130
  -10.9223   15.0694   58.0239 H   0  0  0  0  0  0  0  0  0  0  0  0  # atno 4409 bound_to 924 
  -15.5321    7.3061   77.4792 LP  0  0  0  0  0  0  0  0  0  0  0  0  # atno 4696 bound_to 1471
  -14.9662    8.7676   77.0203 LP  0  0  0  0  0  0  0  0  0  0  0  0  # atno 4697 bound_to 1471
  -13.9500   17.5533   76.2312 LP  0  0  0  0  0  0  0  0  0  0  0  0  # atno 4731 bound_to 414 
  -14.6956   18.2959   74.9825 LP  0  0  0  0  0  0  0  0  0  0  0  0  # atno 4732 bound_to 414 
  -13.3610   16.4479   62.1209 LP  0  0  0  0  0  0  0  0  0  0  0  0  # atno 4733 bound_to 1114
  -12.4844   15.3462   61.2936 LP  0  0  0  0  0  0  0  0  0  0  0  0  # atno 4734 bound_to 1114
  -10.7585   14.9884   56.4070 LP  0  0  0  0  0  0  0  0  0  0  0  0  # atno 4763 bound_to 924 
  -12.1865   15.4296   57.0649 LP  0  0  0  0  0  0  0  0  0  0  0  0  # atno 4764 bound_to 924 
  -20.1606   13.0660   62.8709 LP  0  0  0  0  0  0  0  0  0  0  0  0  # atno 4771 bound_to 1244
  -21.0588   12.5243   64.1225 LP  0  0  0  0  0  0  0  0  0  0  0  0  # atno 4772 bound_to 1244
   -7.6619   22.7249   72.2292 LP  0  0  0  0  0  0  0  0  0  0  0  0  # atno 4775 bound_to 178 
   -6.6660   24.0191   72.2292 LP  0  0  0  0  0  0  0  0  0  0  0  0  # atno 4776 bound_to 178 
   -3.1716   24.9226   72.5284 LP  0  0  0  0  0  0  0  0  0  0  0  0  # atno 4779 bound_to 171 
   -1.7446   24.1299   72.4863 LP  0  0  0  0  0  0  0  0  0  0  0  0  # atno 4780 bound_to 171 
   -8.7886   26.0828   64.0035 LP  0  0  0  0  0  0  0  0  0  0  0  0  # atno 4783 bound_to 185 
   -7.7893   25.0955   63.1708 LP  0  0  0  0  0  0  0  0  0  0  0  0  # atno 4784 bound_to 185 
   -3.1046   16.8189   72.5448 LP  0  0  0  0  0  0  0  0  0  0  0  0  # atno 4785 bound_to 346 
   -1.7861   17.6875   72.9616 LP  0  0  0  0  0  0  0  0  0  0  0  0  # atno 4786 bound_to 346 
   -3.6469   20.8982   74.3042 LP  0  0  0  0  0  0  0  0  0  0  0  0  # atno 4787 bound_to 339 
   -2.7662   20.9098   75.6793 LP  0  0  0  0  0  0  0  0  0  0  0  0  # atno 4788 bound_to 339 
   -7.7674   29.9888   64.9532 LP  0  0  0  0  0  0  0  0  0  0  0  0  # atno 4797 bound_to 154 
   -8.3884   28.5457   65.3987 LP  0  0  0  0  0  0  0  0  0  0  0  0  # atno 4798 bound_to 154 

> <Gold.Score>
     Score     S(PLP)   S(hbond)     S(cho)   S(metal)  DE(clash)   DE(tors)     intcor
     42.28     -42.98       0.00       0.00       0.00       1.69       0.43       1.85

> <Gold.PLP.Fitness>
42.2847

> <Gold.PLP.PLP>
-42.9819

> <Gold.PLP.part.hbond>
-1.0000

> <Gold.PLP.part.metal>
0.0000

> <Gold.PLP.part.buried>
-5.9253

> <Gold.PLP.part.nonpolar>
-38.0001

> <Gold.PLP.part.repulsive>
1.4308

> <Gold.PLP.ligand.clash>
1.6861

> <Gold.PLP.ligand.torsion>
0.4315

> <Gold.PLP.Chemscore.Hbond>
0.0000

> <Gold.PLP.Chemscore.CHOScore>
0.0000

> <Gold.PLP.Chemscore.Metal>
0.0000

> <Gold.PLP.Chemscore.Internal.Correction>
1.8519

#       Name:                unknown
#       Creating user name   williammccorkindale
#       Creation time:       Tue Jun  7 14:55:39 2022


#       File generated by GOLD software.
#

@<TRIPOS>MOLECULE
unknown|prepared_Mpro-x0991|mol2|1|dock2
    14    13     1
SMALL
NO_CHARGES


@<TRIPOS>ATOM
      1 C1         -12.6474  16.1272  73.7759 C.3            1 RES1               0.0000
      2 C2         -12.4314  14.9959  72.8008 C.3            1 RES1               0.0000
      3 C3         -13.4648  15.0569  71.7537 C.2            1 RES1               0.0000
      4 N4         -14.6930  15.0089  72.1007 N.2            1 RES1               0.0000
      5 N5         -13.1394  15.1685  70.3573 N.pl3          1 RES1               0.0000
      6 H6         -13.3651  15.7928  74.5534 H              1 RES1               0.0000
      7 H7         -13.1099  17.0148  73.2644 H              1 RES1               0.0000
      8 H8         -11.6977  16.5087  74.2114 H              1 RES1               0.0000
      9 H9         -11.4238  15.0232  72.3369 H              1 RES1               0.0000
     10 H10        -12.5891  14.0211  73.3446 H              1 RES1               0.0000
     11 H11        -15.0116  14.9295  73.0741 H              1 RES1               0.0000
     12 H12        -12.1309  15.2041  70.1235 H              1 RES1               0.0000
     13 H13        -13.9210  15.2068  69.6677 H              1 RES1               0.0000
     14 ****       -15.3864  15.0511  71.3813 LP             1 RES1               0.0000
@<TRIPOS>BOND
    1    1    2 1     
    2    2    3 1     
    3    3    4 2     
    4    3    5 1     
    5    1    6 1     
    6    1    7 1     
    7    1    8 1     
    8    2    9 1     
    9    2   10 1     
   10    4   11 1     
   11    5   12 1     
   12    5   13 1     
   13    4   14 1     
@<TRIPOS>SUBSTRUCTURE
      1 RES1           1
@<TRIPOS>SET
LONE_PAIRS      STATIC     ATOMS    <user>   **** ""
1 14
DONOR_HYDROGENS      STATIC     ATOMS    <user>   **** ""
3 11 12 13
ATOM$BLUE        STATIC     ATOMS    COLORGROUP SYSTEM
1 14
ATOM$RED        STATIC     ATOMS    COLORGROUP SYSTEM
3 11 12 13
@<TRIPOS>COMMENT
> <Gold.Version>
2022.1.0

> <Gold.Id.Protein>
6LU7|6LU7_protein|mol2

> <Gold.Protein.RotatedTorsions>
[ 3973 1471 1470 1467 ] final  164.84 input   60.00 | X-H torsion
[ 3372  414  413  411 ] final  132.06 input   60.00 | X-H torsion
[ 4268 1114 1113 1110 ] final   82.83 input   59.99 | X-H torsion
[ 4409  924  923  921 ] final   64.25 input   59.99 | X-H torsion
[ 4183 1244 1243 1241 ] final   71.56 input   59.99 | X-H torsion
[ 3800  178  177  174 ] final  -70.23 input   60.00 | X-H torsion
[ 3793  171  170  167 ] final -151.61 input   60.00 | X-H torsion
[ 3576  185  184  181 ] final  175.52 input   60.00 | X-H torsion
[ 3523  346  345  342 ] final  143.20 input   60.01 | X-H torsion
[ 3515  339  338  335 ] final  140.24 input   60.00 | X-H torsion
[ 3663  154  153  150 ] final  110.60 input   60.00 | X-H torsion
[ 4280 1130 1129 1126 ] final  -24.16 input   60.00 | X-H torsion

> <Gold.Protein.ActiveResidues>
 VAL20   THR21   CYS22   GLY23   THR24   THR25   THR26   LEU27   ASN28   PRO39  
 ARG40   HIS41   VAL42   CYS44   THR45   SER46   ASP48   MET49   LEU50   PRO52  
 TYR54   TYR118  ASN119  ILE136  GLY138  SER139  PHE140  LEU141  ASN142  GLY143 
 SER144  CYS145  GLY146  SER147  TYR161  HIS163  HIS164  MET165  GLU166  LEU167 
 PRO168  THR169  GLY170  VAL171  HIS172  ALA173  PHE181  PHE185  VAL186  ASP187 
 ARG188  GLN189  THR190  ALA191  GLN192  ALA193 

> <Gold.Protein.RotatedAtoms>
  -14.4197   17.1250   76.3916 H   0  0  0  0  0  0  0  0  0  0  0  0  # atno 3372 bound_to 414 
   -2.9356   22.2728   75.0783 H   0  0  0  0  0  0  0  0  0  0  0  0  # atno 3515 bound_to 339 
   -1.8229   17.8351   73.0143 H   0  0  0  0  0  0  0  0  0  0  0  0  # atno 3523 bound_to 346 
   -7.1627   26.2232   63.1797 H   0  0  0  0  0  0  0  0  0  0  0  0  # atno 3576 bound_to 185 
   -7.8344   29.9717   64.9594 H   0  0  0  0  0  0  0  0  0  0  0  0  # atno 3663 bound_to 154 
   -1.7600   24.2012   72.5216 H   0  0  0  0  0  0  0  0  0  0  0  0  # atno 3793 bound_to 171 
   -6.6425   22.3967   71.4248 H   0  0  0  0  0  0  0  0  0  0  0  0  # atno 3800 bound_to 178 
  -15.6860    8.0076   78.5266 H   0  0  0  0  0  0  0  0  0  0  0  0  # atno 3973 bound_to 1471
  -20.8531   12.3993   63.3743 H   0  0  0  0  0  0  0  0  0  0  0  0  # atno 4183 bound_to 1244
  -14.1906   16.0842   61.4605 H   0  0  0  0  0  0  0  0  0  0  0  0  # atno 4268 bound_to 1114
  -16.2483   20.3910   58.7278 H   0  0  0  0  0  0  0  0  0  0  0  0  # atno 4280 bound_to 1130
  -10.7766   14.9960   56.4012 H   0  0  0  0  0  0  0  0  0  0  0  0  # atno 4409 bound_to 924 
  -15.3093    7.5402   77.0141 LP  0  0  0  0  0  0  0  0  0  0  0  0  # atno 4696 bound_to 1471
  -15.0366    9.0789   77.4881 LP  0  0  0  0  0  0  0  0  0  0  0  0  # atno 4697 bound_to 1471
  -14.1302   18.3133   75.3183 LP  0  0  0  0  0  0  0  0  0  0  0  0  # atno 4731 bound_to 414 
  -15.5481   17.5041   75.2821 LP  0  0  0  0  0  0  0  0  0  0  0  0  # atno 4732 bound_to 414 
  -12.6769   16.1530   62.0536 LP  0  0  0  0  0  0  0  0  0  0  0  0  # atno 4733 bound_to 1114
  -13.0406   15.1047   60.8555 LP  0  0  0  0  0  0  0  0  0  0  0  0  # atno 4734 bound_to 1114
  -12.1882   15.4305   57.0841 LP  0  0  0  0  0  0  0  0  0  0  0  0  # atno 4763 bound_to 924 
  -10.9035   15.0614   58.0221 LP  0  0  0  0  0  0  0  0  0  0  0  0  # atno 4764 bound_to 924 
  -20.6478   13.3795   64.6569 LP  0  0  0  0  0  0  0  0  0  0  0  0  # atno 4771 bound_to 1244
  -19.8629   13.6854   63.2580 LP  0  0  0  0  0  0  0  0  0  0  0  0  # atno 4772 bound_to 1244
   -7.6687   23.1491   72.4392 LP  0  0  0  0  0  0  0  0  0  0  0  0  # atno 4775 bound_to 178 
   -6.3061   23.9014   71.9453 LP  0  0  0  0  0  0  0  0  0  0  0  0  # atno 4776 bound_to 178 
   -2.9737   23.4732   71.7186 LP  0  0  0  0  0  0  0  0  0  0  0  0  # atno 4779 bound_to 171 
   -3.2343   24.8892   72.4892 LP  0  0  0  0  0  0  0  0  0  0  0  0  # atno 4780 bound_to 171 
   -8.5253   26.5541   64.0053 LP  0  0  0  0  0  0  0  0  0  0  0  0  # atno 4783 bound_to 185 
   -8.2692   25.0534   63.4145 LP  0  0  0  0  0  0  0  0  0  0  0  0  # atno 4784 bound_to 185 
   -3.3949   18.2550   73.0390 LP  0  0  0  0  0  0  0  0  0  0  0  0  # atno 4785 bound_to 346 
   -2.9525   16.7652   72.5375 LP  0  0  0  0  0  0  0  0  0  0  0  0  # atno 4786 bound_to 346 
   -3.6725   21.1094   74.2115 LP  0  0  0  0  0  0  0  0  0  0  0  0  # atno 4787 bound_to 339 
   -2.8617   20.7253   75.5759 LP  0  0  0  0  0  0  0  0  0  0  0  0  # atno 4788 bound_to 339 
   -8.3440   28.4952   65.4158 LP  0  0  0  0  0  0  0  0  0  0  0  0  # atno 4797 bound_to 154 
   -6.7463   28.8254   65.3467 LP  0  0  0  0  0  0  0  0  0  0  0  0  # atno 4798 bound_to 154 

> <Gold.Score>
     Score     S(PLP)   S(hbond)     S(cho)   S(metal)  DE(clash)   DE(tors)     intcor
     23.04     -20.05       1.00       0.00       0.00       0.00       0.00       0.00

> <Gold.PLP.Fitness>
23.0383

> <Gold.PLP.PLP>
-20.0483

> <Gold.PLP.part.hbond>
-1.0000

> <Gold.PLP.part.metal>
0.0000

> <Gold.PLP.part.buried>
-3.7856

> <Gold.PLP.part.nonpolar>
-15.7165

> <Gold.PLP.part.repulsive>
0.0717

> <Gold.PLP.ligand.clash>
0.0000

> <Gold.PLP.ligand.torsion>
0.0050

> <Gold.PLP.Chemscore.Hbond>
1.0000

> <Gold.PLP.Chemscore.CHOScore>
0.0000

> <Gold.PLP.Chemscore.Metal>
0.0000

> <Gold.Chemscore.Hbonds>
donor molecule, donor type, donor heavy atom, donor atom, acceptor molecule, acceptor atom, score
      L1  H     5    13       P1  1266  1.00

> <Gold.PLP.Chemscore.Internal.Correction>
0.0000

#       Name:                unknown
#       Creating user name   williammccorkindale
#       Creation time:       Tue Jun  7 14:55:39 2022


#       File generated by GOLD software.
#

@<TRIPOS>MOLECULE
unknown|prepared_Mpro-x0991|mol2|1|dock1
    14    13     1
SMALL
NO_CHARGES


@<TRIPOS>ATOM
      1 C1         -12.2539  15.4581  73.0406 C.3            1 RES1               0.0000
      2 C2         -13.5176  14.6734  72.7859 C.3            1 RES1               0.0000
      3 C3         -13.9584  14.9044  71.4001 C.2            1 RES1               0.0000
      4 N4         -15.1553  15.3000  71.1952 N.2            1 RES1               0.0000
      5 N5         -13.0896  14.7005  70.2723 N.pl3          1 RES1               0.0000
      6 H6         -12.5320  16.4817  73.3667 H              1 RES1               0.0000
      7 H7         -11.6528  15.5677  72.0972 H              1 RES1               0.0000
      8 H8         -11.5710  14.9547  73.7599 H              1 RES1               0.0000
      9 H9         -13.3836  13.5861  72.9617 H              1 RES1               0.0000
     10 H10        -14.3317  15.0830  73.4494 H              1 RES1               0.0000
     11 H11        -15.5468  15.4857  70.2637 H              1 RES1               0.0000
     12 H12        -12.1284  14.3796  70.4869 H              1 RES1               0.0000
     13 H13        -13.4663  14.8829  69.3170 H              1 RES1               0.0000
     14 ****       -15.7472  15.4373  71.9895 LP             1 RES1               0.0000
@<TRIPOS>BOND
    1    1    2 1     
    2    2    3 1     
    3    3    4 2     
    4    3    5 1     
    5    1    6 1     
    6    1    7 1     
    7    1    8 1     
    8    2    9 1     
    9    2   10 1     
   10    4   11 1     
   11    5   12 1     
   12    5   13 1     
   13    4   14 1     
@<TRIPOS>SUBSTRUCTURE
      1 RES1           1
@<TRIPOS>SET
LONE_PAIRS      STATIC     ATOMS    <user>   **** ""
1 14
DONOR_HYDROGENS      STATIC     ATOMS    <user>   **** ""
3 11 12 13
ATOM$BLUE        STATIC     ATOMS    COLORGROUP SYSTEM
1 14
ATOM$RED        STATIC     ATOMS    COLORGROUP SYSTEM
3 11 12 13
@<TRIPOS>COMMENT
> <Gold.Version>
2022.1.0

> <Gold.Id.Protein>
6LU7|6LU7_protein|mol2

> <Gold.Protein.RotatedTorsions>
[ 3973 1471 1470 1467 ] final    6.96 input   60.00 | X-H torsion
[ 3372  414  413  411 ] final  -99.57 input   60.00 | X-H torsion
[ 4268 1114 1113 1110 ] final -112.22 input   59.99 | X-H torsion
[ 4409  924  923  921 ] final    0.89 input   59.99 | X-H torsion
[ 4183 1244 1243 1241 ] final -130.06 input   59.99 | X-H torsion
[ 3800  178  177  174 ] final   73.40 input   60.00 | X-H torsion
[ 3793  171  170  167 ] final   50.12 input   60.00 | X-H torsion
[ 3576  185  184  181 ] final  -50.20 input   60.00 | X-H torsion
[ 3523  346  345  342 ] final  111.03 input   60.01 | X-H torsion
[ 3515  339  338  335 ] final  -78.73 input   60.00 | X-H torsion
[ 3663  154  153  150 ] final  105.66 input   60.00 | X-H torsion
[ 4280 1130 1129 1126 ] final  103.95 input   60.00 | X-H torsion

> <Gold.Protein.ActiveResidues>
 VAL20   THR21   CYS22   GLY23   THR24   THR25   THR26   LEU27   ASN28   PRO39  
 ARG40   HIS41   VAL42   CYS44   THR45   SER46   ASP48   MET49   LEU50   PRO52  
 TYR54   TYR118  ASN119  ILE136  GLY138  SER139  PHE140  LEU141  ASN142  GLY143 
 SER144  CYS145  GLY146  SER147  TYR161  HIS163  HIS164  MET165  GLU166  LEU167 
 PRO168  THR169  GLY170  VAL171  HIS172  ALA173  PHE181  PHE185  VAL186  ASP187 
 ARG188  GLN189  THR190  ALA191  GLN192  ALA193 

> <Gold.Protein.RotatedAtoms>
  -15.5102   17.6078   75.2004 H   0  0  0  0  0  0  0  0  0  0  0  0  # atno 3372 bound_to 414 
   -3.0374   20.5323   75.3535 H   0  0  0  0  0  0  0  0  0  0  0  0  # atno 3515 bound_to 339 
   -2.0959   18.2566   73.1446 H   0  0  0  0  0  0  0  0  0  0  0  0  # atno 3523 bound_to 346 
   -8.4507   25.1328   63.5383 H   0  0  0  0  0  0  0  0  0  0  0  0  # atno 3576 bound_to 185 
   -7.9127   29.9522   64.9639 H   0  0  0  0  0  0  0  0  0  0  0  0  # atno 3663 bound_to 154 
   -3.4282   23.8765   71.8198 H   0  0  0  0  0  0  0  0  0  0  0  0  # atno 3793 bound_to 171 
   -6.5947   24.0085   72.1761 H   0  0  0  0  0  0  0  0  0  0  0  0  # atno 3800 bound_to 178 
  -15.0848    8.0615   76.7910 H   0  0  0  0  0  0  0  0  0  0  0  0  # atno 3973 bound_to 1471
  -19.9224   13.9198   63.8262 H   0  0  0  0  0  0  0  0  0  0  0  0  # atno 4183 bound_to 1244
  -12.5029   15.3349   61.2722 H   0  0  0  0  0  0  0  0  0  0  0  0  # atno 4268 bound_to 1114
  -15.5205   19.0923   59.5141 H   0  0  0  0  0  0  0  0  0  0  0  0  # atno 4280 bound_to 1130
  -11.7168   15.2776   56.3431 H   0  0  0  0  0  0  0  0  0  0  0  0  # atno 4409 bound_to 924 
  -15.2368    9.0609   78.0662 LP  0  0  0  0  0  0  0  0  0  0  0  0  # atno 4696 bound_to 1471
  -15.7145    7.5039   78.1840 LP  0  0  0  0  0  0  0  0  0  0  0  0  # atno 4697 bound_to 1471
  -14.5390   17.0573   76.3844 LP  0  0  0  0  0  0  0  0  0  0  0  0  # atno 4731 bound_to 414 
  -14.0411   18.2738   75.4156 LP  0  0  0  0  0  0  0  0  0  0  0  0  # atno 4732 bound_to 414 
  -14.0850   15.5684   60.9720 LP  0  0  0  0  0  0  0  0  0  0  0  0  # atno 4733 bound_to 1114
  -13.3322   16.4439   62.1267 LP  0  0  0  0  0  0  0  0  0  0  0  0  # atno 4734 bound_to 1114
  -11.7590   15.3176   57.9693 LP  0  0  0  0  0  0  0  0  0  0  0  0  # atno 4763 bound_to 924 
  -10.3858   14.8907   57.1955 LP  0  0  0  0  0  0  0  0  0  0  0  0  # atno 4764 bound_to 924 
  -20.4866   12.6664   62.9552 LP  0  0  0  0  0  0  0  0  0  0  0  0  # atno 4771 bound_to 1244
  -20.9614   12.8671   64.5047 LP  0  0  0  0  0  0  0  0  0  0  0  0  # atno 4772 bound_to 1244
   -6.3438   22.6281   71.3517 LP  0  0  0  0  0  0  0  0  0  0  0  0  # atno 4775 bound_to 178 
   -7.6791   22.7993   72.2761 LP  0  0  0  0  0  0  0  0  0  0  0  0  # atno 4776 bound_to 178 
   -2.6734   24.9983   72.7252 LP  0  0  0  0  0  0  0  0  0  0  0  0  # atno 4779 bound_to 171 
   -1.8544   23.6911   72.1895 LP  0  0  0  0  0  0  0  0  0  0  0  0  # atno 4780 bound_to 171 
   -7.1470   26.0034   63.1020 LP  0  0  0  0  0  0  0  0  0  0  0  0  # atno 4783 bound_to 185 
   -8.3503   26.7022   63.9566 LP  0  0  0  0  0  0  0  0  0  0  0  0  # atno 4784 bound_to 185 
   -3.6407   17.8277   72.8658 LP  0  0  0  0  0  0  0  0  0  0  0  0  # atno 4785 bound_to 346 
   -2.4317   16.7680   72.5796 LP  0  0  0  0  0  0  0  0  0  0  0  0  # atno 4786 bound_to 346 
   -2.7790   22.1389   75.3523 LP  0  0  0  0  0  0  0  0  0  0  0  0  # atno 4787 bound_to 339 
   -3.6527   21.4486   74.1578 LP  0  0  0  0  0  0  0  0  0  0  0  0  # atno 4788 bound_to 339 
   -8.2872   28.4401   65.4346 LP  0  0  0  0  0  0  0  0  0  0  0  0  # atno 4797 bound_to 154 
   -6.7243   28.9002   65.3234 LP  0  0  0  0  0  0  0  0  0  0  0  0  # atno 4798 bound_to 154 

> <Gold.Score>
     Score     S(PLP)   S(hbond)     S(cho)   S(metal)  DE(clash)   DE(tors)     intcor
     25.20     -20.21       1.69       0.00       0.00       0.00       0.04       0.00

> <Gold.PLP.Fitness>
25.2026

> <Gold.PLP.PLP>
-20.2073

> <Gold.PLP.part.hbond>
-2.1534

> <Gold.PLP.part.metal>
0.0000

> <Gold.PLP.part.buried>
-4.1079

> <Gold.PLP.part.nonpolar>
-14.8853

> <Gold.PLP.part.repulsive>
0.0546

> <Gold.PLP.ligand.clash>
0.0000

> <Gold.PLP.ligand.torsion>
0.0429

> <Gold.PLP.Chemscore.Hbond>
1.6936

> <Gold.PLP.Chemscore.CHOScore>
0.0000

> <Gold.PLP.Chemscore.Metal>
0.0000

> <Gold.Chemscore.Hbonds>
donor molecule, donor type, donor heavy atom, donor atom, acceptor molecule, acceptor atom, score
      L1  H     4    11       P1  1266  0.76
      L1  H     5    13       P1  1266  0.94

> <Gold.PLP.Chemscore.Internal.Correction>
0.0003

#       Name:                unknown
#       Creating user name   williammccorkindale
#       Creation time:       Tue Jun  7 14:55:39 2022


#       File generated by GOLD software.
#

@<TRIPOS>MOLECULE
unknown|prepared_Mpro-x2193|mol2|1|dock1
    33    34     1
SMALL
NO_CHARGES


@<TRIPOS>ATOM
      1 C1         -11.9599  15.8360  64.6592 C.3            1 RES1               0.0000
      2 S2         -10.5204  15.4314  65.6423 S.o2           1 RES1               0.0000
      3 O3          -9.5025  16.5448  65.5047 O.2            1 RES1               0.0000
      4 O4          -9.9322  14.1211  65.2294 O.2            1 RES1               0.0000
      5 C5         -11.0282  15.4226  67.3167 C.ar           1 RES1               0.0000
      6 C6         -10.7989  16.4920  68.1553 C.ar           1 RES1               0.0000
      7 C7         -11.1919  16.5002  69.4735 C.ar           1 RES1               0.0000
      8 C8         -11.8495  15.4108  70.0284 C.ar           1 RES1               0.0000
      9 C9         -12.0818  14.3406  69.1985 C.ar           1 RES1               0.0000
     10 C10        -11.6821  14.3488  67.8829 C.ar           1 RES1               0.0000
     11 N11        -12.2659  15.4080  71.3899 N.pl3          1 RES1               0.0000
     12 C12        -13.3014  14.4749  71.7706 C.3            1 RES1               0.0000
     13 C13        -13.2012  14.3566  73.2990 C.3            1 RES1               0.0000
     14 N14        -13.4822  15.6656  73.8145 N.3            1 RES1               0.0000
     15 C15        -12.3592  16.5396  73.5870 C.3            1 RES1               0.0000
     16 C16        -11.6544  16.3166  72.3029 C.3            1 RES1               0.0000
     17 H17        -12.4437  16.7081  65.1450 H              1 RES1               0.0000
     18 H18        -11.7068  16.0092  63.6133 H              1 RES1               0.0000
     19 H19        -12.6735  14.9817  64.8005 H              1 RES1               0.0000
     20 H20        -10.2846  17.3554  67.7383 H              1 RES1               0.0000
     21 H21        -10.9948  17.3685  70.1243 H              1 RES1               0.0000
     22 H22        -12.5914  13.4823  69.6011 H              1 RES1               0.0000
     23 H23        -11.8619  13.5025  67.2139 H              1 RES1               0.0000
     24 H24        -14.3011  14.9153  71.5541 H              1 RES1               0.0000
     25 H25        -13.1730  13.4707  71.3183 H              1 RES1               0.0000
     26 H26        -13.9284  13.5950  73.6320 H              1 RES1               0.0000
     27 H27        -12.1757  14.0773  73.5612 H              1 RES1               0.0000
     28 H28        -14.3375  16.0256  73.2950 H              1 RES1               0.0000
     29 H29        -11.6550  16.3807  74.4519 H              1 RES1               0.0000
     30 H30        -12.7298  17.5778  73.7139 H              1 RES1               0.0000
     31 H31        -10.6051  16.0129  72.4983 H              1 RES1               0.0000
     32 H32        -11.5653  17.3306  71.8092 H              1 RES1               0.0000
     33 ****       -13.6497  15.6336  74.7999 LP             1 RES1               0.0000
@<TRIPOS>BOND
    1    1    2 1     
    2    2    3 2     
    3    2    4 2     
    4    2    5 1     
    5    5    6 ar    
    6    6    7 ar    
    7    7    8 ar    
    8    8    9 ar    
    9    9   10 ar    
   10    8   11 1     
   11   11   12 1     
   12   12   13 1     
   13   13   14 1     
   14   14   15 1     
   15   15   16 1     
   16   10    5 ar    
   17   16   11 1     
   18    1   17 1     
   19    1   18 1     
   20    1   19 1     
   21    6   20 1     
   22    7   21 1     
   23    9   22 1     
   24   10   23 1     
   25   12   24 1     
   26   12   25 1     
   27   13   26 1     
   28   13   27 1     
   29   14   28 1     
   30   15   29 1     
   31   15   30 1     
   32   16   31 1     
   33   16   32 1     
   34   14   33 1     
@<TRIPOS>SUBSTRUCTURE
      1 RES1           1
@<TRIPOS>SET
LONE_PAIRS      STATIC     ATOMS    <user>   **** ""
3 3 4 33
DONOR_HYDROGENS      STATIC     ATOMS    <user>   **** ""
1 28
ATOM$BLUE        STATIC     ATOMS    COLORGROUP SYSTEM
3 3 4 33
ATOM$RED        STATIC     ATOMS    COLORGROUP SYSTEM
1 28
@<TRIPOS>COMMENT
> <Gold.Version>
2022.1.0

> <Gold.Id.Protein>
6LU7|6LU7_protein|mol2

> <Gold.Protein.RotatedTorsions>
[ 3973 1471 1470 1467 ] final -141.82 input   60.00 | X-H torsion
[ 3372  414  413  411 ] final -102.75 input   60.00 | X-H torsion
[ 4268 1114 1113 1110 ] final  -15.42 input   59.99 | X-H torsion
[ 4409  924  923  921 ] final  -60.27 input   59.99 | X-H torsion
[ 4183 1244 1243 1241 ] final  144.96 input   59.99 | X-H torsion
[ 3800  178  177  174 ] final -115.21 input   60.00 | X-H torsion
[ 3793  171  170  167 ] final  -23.31 input   60.00 | X-H torsion
[ 3576  185  184  181 ] final   83.27 input   60.00 | X-H torsion
[ 3523  346  345  342 ] final  -50.05 input   60.01 | X-H torsion
[ 3515  339  338  335 ] final  -30.80 input   60.00 | X-H torsion
[ 3663  154  153  150 ] final -172.37 input   60.00 | X-H torsion
[ 4280 1130 1129 1126 ] final  113.13 input   60.00 | X-H torsion

> <Gold.Protein.ActiveResidues>
 VAL20   THR21   CYS22   GLY23   THR24   THR25   THR26   LEU27   ASN28   PRO39  
 ARG40   HIS41   VAL42   CYS44   THR45   SER46   ASP48   MET49   LEU50   PRO52  
 TYR54   TYR118  ASN119  ILE136  GLY138  SER139  PHE140  LEU141  ASN142  GLY143 
 SER144  CYS145  GLY146  SER147  TYR161  HIS163  HIS164  MET165  GLU166  LEU167 
 PRO168  THR169  GLY170  VAL171  HIS172  ALA173  PHE181  PHE185  VAL186  ASP187 
 ARG188  GLN189  THR190  ALA191  GLN192  ALA193 

> <Gold.Protein.RotatedAtoms>
  -15.5247   17.5691   75.2319 H   0  0  0  0  0  0  0  0  0  0  0  0  # atno 3372 bound_to 414 
   -3.4488   20.5155   74.7141 H   0  0  0  0  0  0  0  0  0  0  0  0  # atno 3515 bound_to 339 
   -3.5379   17.2117   72.6546 H   0  0  0  0  0  0  0  0  0  0  0  0  # atno 3523 bound_to 346 
   -8.1620   26.7925   63.8860 H   0  0  0  0  0  0  0  0  0  0  0  0  # atno 3576 bound_to 185 
   -6.7926   29.4802   65.1395 H   0  0  0  0  0  0  0  0  0  0  0  0  # atno 3663 bound_to 154 
   -3.3244   24.8179   72.4164 H   0  0  0  0  0  0  0  0  0  0  0  0  # atno 3793 bound_to 171 
   -7.2620   22.3116   71.7739 H   0  0  0  0  0  0  0  0  0  0  0  0  # atno 3800 bound_to 178 
  -15.4225    8.7960   78.4030 H   0  0  0  0  0  0  0  0  0  0  0  0  # atno 3973 bound_to 1471
  -20.1388   13.1063   62.8824 H   0  0  0  0  0  0  0  0  0  0  0  0  # atno 4183 bound_to 1244
  -12.9708   16.3338   62.1345 H   0  0  0  0  0  0  0  0  0  0  0  0  # atno 4268 bound_to 1114
  -15.5282   18.9674   59.4317 H   0  0  0  0  0  0  0  0  0  0  0  0  # atno 4280 bound_to 1130
  -12.1843   15.4330   57.1582 H   0  0  0  0  0  0  0  0  0  0  0  0  # atno 4409 bound_to 924 
  -15.6267    7.3130   77.7650 LP  0  0  0  0  0  0  0  0  0  0  0  0  # atno 4696 bound_to 1471
  -14.9844    8.5122   76.8617 LP  0  0  0  0  0  0  0  0  0  0  0  0  # atno 4697 bound_to 1471
  -14.4921   17.0796   76.3904 LP  0  0  0  0  0  0  0  0  0  0  0  0  # atno 4731 bound_to 414 
  -14.0734   18.2905   75.3779 LP  0  0  0  0  0  0  0  0  0  0  0  0  # atno 4732 bound_to 414 
  -12.7342   15.1674   61.0248 LP  0  0  0  0  0  0  0  0  0  0  0  0  # atno 4733 bound_to 1114
  -14.2118   15.8389   61.2055 LP  0  0  0  0  0  0  0  0  0  0  0  0  # atno 4734 bound_to 1114
  -10.8404   15.0418   57.9882 LP  0  0  0  0  0  0  0  0  0  0  0  0  # atno 4763 bound_to 924 
  -10.8335   15.0100   56.3555 LP  0  0  0  0  0  0  0  0  0  0  0  0  # atno 4764 bound_to 924 
  -21.0584   12.5021   64.0812 LP  0  0  0  0  0  0  0  0  0  0  0  0  # atno 4771 bound_to 1244
  -20.1716   13.8507   64.3290 LP  0  0  0  0  0  0  0  0  0  0  0  0  # atno 4772 bound_to 1244
   -7.2993   23.7650   72.5050 LP  0  0  0  0  0  0  0  0  0  0  0  0  # atno 4775 bound_to 178 
   -6.0516   23.3711   71.5278 LP  0  0  0  0  0  0  0  0  0  0  0  0  # atno 4776 bound_to 178 
   -1.7853   24.3180   72.5868 LP  0  0  0  0  0  0  0  0  0  0  0  0  # atno 4779 bound_to 171 
   -2.8470   23.4233   71.7272 LP  0  0  0  0  0  0  0  0  0  0  0  0  # atno 4780 bound_to 171 
   -8.6040   25.2441   63.6512 LP  0  0  0  0  0  0  0  0  0  0  0  0  # atno 4783 bound_to 185 
   -7.1841   25.7900   63.0573 LP  0  0  0  0  0  0  0  0  0  0  0  0  # atno 4784 bound_to 185 
   -1.9152   17.1423   72.7551 LP  0  0  0  0  0  0  0  0  0  0  0  0  # atno 4785 bound_to 346 
   -2.7051   18.5057   73.1837 LP  0  0  0  0  0  0  0  0  0  0  0  0  # atno 4786 bound_to 346 
   -2.6383   21.4901   75.7344 LP  0  0  0  0  0  0  0  0  0  0  0  0  # atno 4787 bound_to 339 
   -3.3790   22.1143   74.4197 LP  0  0  0  0  0  0  0  0  0  0  0  0  # atno 4788 bound_to 339 
   -8.4126   29.6117   65.0587 LP  0  0  0  0  0  0  0  0  0  0  0  0  # atno 4797 bound_to 154 
   -7.7269   28.2040   65.5224 LP  0  0  0  0  0  0  0  0  0  0  0  0  # atno 4798 bound_to 154 

> <Gold.Score>
     Score     S(PLP)   S(hbond)     S(cho)   S(metal)  DE(clash)   DE(tors)     intcor
     45.98     -43.42       1.00       0.00       0.00       0.00       1.30       2.17

> <Gold.PLP.Fitness>
45.9846

> <Gold.PLP.PLP>
-43.4166

> <Gold.PLP.part.hbond>
-2.3201

> <Gold.PLP.part.metal>
0.0000

> <Gold.PLP.part.buried>
-6.1015

> <Gold.PLP.part.nonpolar>
-36.6070

> <Gold.PLP.part.repulsive>
0.4042

> <Gold.PLP.ligand.clash>
0.0000

> <Gold.PLP.ligand.torsion>
1.2999

> <Gold.PLP.Chemscore.Hbond>
1.0000

> <Gold.PLP.Chemscore.CHOScore>
0.0000

> <Gold.PLP.Chemscore.Metal>
0.0000

> <Gold.Chemscore.Hbonds>
donor molecule, donor type, donor heavy atom, donor atom, acceptor molecule, acceptor atom, score
      P1  H  1105  4261       L1     3  1.00

> <Gold.PLP.Chemscore.Internal.Correction>
2.1677

#       Name:                unknown
#       Creating user name   williammccorkindale
#       Creation time:       Tue Jun  7 14:55:39 2022


#       File generated by GOLD software.
#

@<TRIPOS>MOLECULE
unknown|prepared_Mpro-x2193|mol2|1|dock2
    33    34     1
SMALL
NO_CHARGES


@<TRIPOS>ATOM
      1 C1         -12.0372  15.5157  64.6510 C.3            1 RES1               0.0000
      2 S2         -10.5539  15.5968  65.6489 S.o2           1 RES1               0.0000
      3 O3          -9.8849  16.9376  65.4269 O.2            1 RES1               0.0000
      4 O4          -9.6191  14.4773  65.3232 O.2            1 RES1               0.0000
      5 C5         -11.0594  15.5615  67.3237 C.ar           1 RES1               0.0000
      6 C6         -10.6506  16.5156  68.2304 C.ar           1 RES1               0.0000
      7 C7         -11.0392  16.5014  69.5498 C.ar           1 RES1               0.0000
      8 C8         -11.8765  15.5065  70.0360 C.ar           1 RES1               0.0000
      9 C9         -12.2883  14.5517  69.1380 C.ar           1 RES1               0.0000
     10 C10        -11.8903  14.5805  67.8221 C.ar           1 RES1               0.0000
     11 N11        -12.2902  15.4828  71.3981 N.pl3          1 RES1               0.0000
     12 C12        -13.3050  14.5245  71.7723 C.3            1 RES1               0.0000
     13 C13        -13.1994  14.3947  73.2993 C.3            1 RES1               0.0000
     14 N14        -13.5071  15.6928  73.8271 N.3            1 RES1               0.0000
     15 C15        -12.4033  16.5924  73.6055 C.3            1 RES1               0.0000
     16 C16        -11.6964  16.3959  72.3182 C.3            1 RES1               0.0000
     17 H17        -12.7505  16.2496  65.0789 H              1 RES1               0.0000
     18 H18        -11.8297  15.6805  63.5937 H              1 RES1               0.0000
     19 H19        -12.4861  14.5082  64.8563 H              1 RES1               0.0000
     20 H20         -9.9939  17.3037  67.8678 H              1 RES1               0.0000
     21 H21        -10.6966  17.2763  70.2559 H              1 RES1               0.0000
     22 H22        -12.9395  13.7688  69.4865 H              1 RES1               0.0000
     23 H23        -12.2121  13.8256  67.0992 H              1 RES1               0.0000
     24 H24        -14.3141  14.9456  71.5613 H              1 RES1               0.0000
     25 H25        -13.1562  13.5274  71.3107 H              1 RES1               0.0000
     26 H26        -13.9097  13.6149  73.6267 H              1 RES1               0.0000
     27 H27        -12.1677  14.1349  73.5573 H              1 RES1               0.0000
     28 H28        -14.3708  16.0392  73.3123 H              1 RES1               0.0000
     29 H29        -11.6943  16.4408  74.4677 H              1 RES1               0.0000
     30 H30        -12.7956  17.6213  73.7424 H              1 RES1               0.0000
     31 H31        -10.6405  16.1128  72.5091 H              1 RES1               0.0000
     32 H32        -11.6298  17.4160  71.8336 H              1 RES1               0.0000
     33 ****       -13.6721  15.6484  74.8124 LP             1 RES1               0.0000
@<TRIPOS>BOND
    1    1    2 1     
    2    2    3 2     
    3    2    4 2     
    4    2    5 1     
    5    5    6 ar    
    6    6    7 ar    
    7    7    8 ar    
    8    8    9 ar    
    9    9   10 ar    
   10    8   11 1     
   11   11   12 1     
   12   12   13 1     
   13   13   14 1     
   14   14   15 1     
   15   15   16 1     
   16   10    5 ar    
   17   16   11 1     
   18    1   17 1     
   19    1   18 1     
   20    1   19 1     
   21    6   20 1     
   22    7   21 1     
   23    9   22 1     
   24   10   23 1     
   25   12   24 1     
   26   12   25 1     
   27   13   26 1     
   28   13   27 1     
   29   14   28 1     
   30   15   29 1     
   31   15   30 1     
   32   16   31 1     
   33   16   32 1     
   34   14   33 1     
@<TRIPOS>SUBSTRUCTURE
      1 RES1           1
@<TRIPOS>SET
LONE_PAIRS      STATIC     ATOMS    <user>   **** ""
3 3 4 33
DONOR_HYDROGENS      STATIC     ATOMS    <user>   **** ""
1 28
ATOM$BLUE        STATIC     ATOMS    COLORGROUP SYSTEM
3 3 4 33
ATOM$RED        STATIC     ATOMS    COLORGROUP SYSTEM
1 28
@<TRIPOS>COMMENT
> <Gold.Version>
2022.1.0

> <Gold.Id.Protein>
6LU7|6LU7_protein|mol2

> <Gold.Protein.RotatedTorsions>
[ 3973 1471 1470 1467 ] final  -37.65 input   60.00 | X-H torsion
[ 3372  414  413  411 ] final -161.46 input   60.00 | X-H torsion
[ 4268 1114 1113 1110 ] final -137.49 input   59.99 | X-H torsion
[ 4409  924  923  921 ] final -142.55 input   59.99 | X-H torsion
[ 4183 1244 1243 1241 ] final  124.42 input   59.99 | X-H torsion
[ 3800  178  177  174 ] final  -89.48 input   60.00 | X-H torsion
[ 3793  171  170  167 ] final   53.46 input   60.00 | X-H torsion
[ 3576  185  184  181 ] final -166.93 input   60.00 | X-H torsion
[ 3523  346  345  342 ] final   81.96 input   60.01 | X-H torsion
[ 3515  339  338  335 ] final   43.95 input   60.00 | X-H torsion
[ 3663  154  153  150 ] final   74.91 input   60.00 | X-H torsion
[ 4280 1130 1129 1126 ] final  -39.97 input   60.00 | X-H torsion

> <Gold.Protein.ActiveResidues>
 VAL20   THR21   CYS22   GLY23   THR24   THR25   THR26   LEU27   ASN28   PRO39  
 ARG40   HIS41   VAL42   CYS44   THR45   SER46   ASP48   MET49   LEU50   PRO52  
 TYR54   TYR118  ASN119  ILE136  GLY138  SER139  PHE140  LEU141  ASN142  GLY143 
 SER144  CYS145  GLY146  SER147  TYR161  HIS163  HIS164  MET165  GLU166  LEU167 
 PRO168  THR169  GLY170  VAL171  HIS172  ALA173  PHE181  PHE185  VAL186  ASP187 
 ARG188  GLN189  THR190  ALA191  GLN192  ALA193 

> <Gold.Protein.RotatedAtoms>
  -15.3331   17.0134   75.9370 H   0  0  0  0  0  0  0  0  0  0  0  0  # atno 3372 bound_to 414 
   -3.6437   21.4916   74.1655 H   0  0  0  0  0  0  0  0  0  0  0  0  # atno 3515 bound_to 339 
   -2.5114   18.4714   73.1891 H   0  0  0  0  0  0  0  0  0  0  0  0  # atno 3523 bound_to 346 
   -7.1566   25.9508   63.0940 H   0  0  0  0  0  0  0  0  0  0  0  0  # atno 3576 bound_to 185 
   -8.3327   29.6975   65.0355 H   0  0  0  0  0  0  0  0  0  0  0  0  # atno 3663 bound_to 154 
   -3.3995   23.8333   71.8026 H   0  0  0  0  0  0  0  0  0  0  0  0  # atno 3793 bound_to 171 
   -6.9129   22.2965   71.5466 H   0  0  0  0  0  0  0  0  0  0  0  0  # atno 3800 bound_to 178 
  -14.9670    8.7306   76.9993 H   0  0  0  0  0  0  0  0  0  0  0  0  # atno 3973 bound_to 1471
  -20.3374   12.8380   62.8885 H   0  0  0  0  0  0  0  0  0  0  0  0  # atno 4183 bound_to 1244
  -12.7638   15.1635   61.0072 H   0  0  0  0  0  0  0  0  0  0  0  0  # atno 4268 bound_to 1114
  -16.3377   20.3072   58.5013 H   0  0  0  0  0  0  0  0  0  0  0  0  # atno 4280 bound_to 1130
  -11.4122   15.2180   58.0935 H   0  0  0  0  0  0  0  0  0  0  0  0  # atno 4409 bound_to 924 
  -15.5233    8.5895   78.5220 LP  0  0  0  0  0  0  0  0  0  0  0  0  # atno 4696 bound_to 1471
  -15.5467    7.3015   77.5184 LP  0  0  0  0  0  0  0  0  0  0  0  0  # atno 4697 bound_to 1471
  -13.8727   17.7087   76.1160 LP  0  0  0  0  0  0  0  0  0  0  0  0  # atno 4731 bound_to 414 
  -14.8857   18.2210   74.9422 LP  0  0  0  0  0  0  0  0  0  0  0  0  # atno 4732 bound_to 414 
  -14.2161   15.8632   61.2289 LP  0  0  0  0  0  0  0  0  0  0  0  0  # atno 4733 bound_to 1114
  -12.9385   16.3218   62.1367 LP  0  0  0  0  0  0  0  0  0  0  0  0  # atno 4734 bound_to 1114
  -10.4514   14.9036   56.8184 LP  0  0  0  0  0  0  0  0  0  0  0  0  # atno 4763 bound_to 924 
  -12.0002   15.3649   56.5834 LP  0  0  0  0  0  0  0  0  0  0  0  0  # atno 4764 bound_to 924 
  -21.0275   12.6947   64.3552 LP  0  0  0  0  0  0  0  0  0  0  0  0  # atno 4771 bound_to 1244
  -20.0025   13.9284   64.0490 LP  0  0  0  0  0  0  0  0  0  0  0  0  # atno 4772 bound_to 1244
   -7.5606   23.4365   72.5104 LP  0  0  0  0  0  0  0  0  0  0  0  0  # atno 4775 bound_to 178 
   -6.1418   23.7149   71.7514 LP  0  0  0  0  0  0  0  0  0  0  0  0  # atno 4776 bound_to 178 
   -2.7266   25.0031   72.7119 LP  0  0  0  0  0  0  0  0  0  0  0  0  # atno 4779 bound_to 171 
   -1.8301   23.7298   72.2201 LP  0  0  0  0  0  0  0  0  0  0  0  0  # atno 4780 bound_to 171 
   -8.3067   26.7298   63.9416 LP  0  0  0  0  0  0  0  0  0  0  0  0  # atno 4783 bound_to 185 
   -8.4940   25.1520   63.5645 LP  0  0  0  0  0  0  0  0  0  0  0  0  # atno 4784 bound_to 185 
   -3.6204   17.3825   72.7071 LP  0  0  0  0  0  0  0  0  0  0  0  0  # atno 4785 bound_to 346 
   -2.0336   16.9969   72.6934 LP  0  0  0  0  0  0  0  0  0  0  0  0  # atno 4786 bound_to 346 
   -3.0584   20.5083   75.3224 LP  0  0  0  0  0  0  0  0  0  0  0  0  # atno 4787 bound_to 339 
   -2.7627   22.1131   75.3843 LP  0  0  0  0  0  0  0  0  0  0  0  0  # atno 4788 bound_to 339 
   -7.8452   28.2207   65.5145 LP  0  0  0  0  0  0  0  0  0  0  0  0  # atno 4797 bound_to 154 
   -6.7433   29.3760   65.1715 LP  0  0  0  0  0  0  0  0  0  0  0  0  # atno 4798 bound_to 154 

> <Gold.Score>
     Score     S(PLP)   S(hbond)     S(cho)   S(metal)  DE(clash)   DE(tors)     intcor
     45.16     -42.38       1.00       0.00       0.00       0.00       1.19       2.17

> <Gold.PLP.Fitness>
45.1647

> <Gold.PLP.PLP>
-42.3779

> <Gold.PLP.part.hbond>
-2.4404

> <Gold.PLP.part.metal>
0.0000

> <Gold.PLP.part.buried>
-4.4949

> <Gold.PLP.part.nonpolar>
-38.0076

> <Gold.PLP.part.repulsive>
1.2594

> <Gold.PLP.ligand.clash>
0.0000

> <Gold.PLP.ligand.torsion>
1.1904

> <Gold.PLP.Chemscore.Hbond>
1.0000

> <Gold.PLP.Chemscore.CHOScore>
0.0000

> <Gold.PLP.Chemscore.Metal>
0.0000

> <Gold.Chemscore.Hbonds>
donor molecule, donor type, donor heavy atom, donor atom, acceptor molecule, acceptor atom, score
      P1  H  1105  4261       L1     3  1.00

> <Gold.PLP.Chemscore.Internal.Correction>
2.1677

#       Name:                unknown
#       Creating user name   williammccorkindale
#       Creation time:       Tue Jun  7 14:55:39 2022


#       File generated by GOLD software.
#

@<TRIPOS>MOLECULE
unknown|prepared_Mpro-x0995|mol2|1|dock1
    14    14     1
SMALL
NO_CHARGES


@<TRIPOS>ATOM
      1 N1         -12.9017  16.2358  74.8103 N.pl3          1 RES1               0.0000
      2 C2         -12.7228  15.7904  73.4702 C.ar           1 RES1               0.0000
      3 C3         -13.5154  14.8132  72.8973 C.ar           1 RES1               0.0000
      4 N4         -13.2977  14.4250  71.6060 N.ar           1 RES1               0.0000
      5 C5         -12.3170  14.9847  70.8816 C.ar           1 RES1               0.0000
      6 N6         -11.5380  15.9251  71.4001 N.ar           1 RES1               0.0000
      7 C7         -11.7253  16.3396  72.6889 C.ar           1 RES1               0.0000
      8 H8         -13.6594  15.8333  75.4358 H              1 RES1               0.0000
      9 H9         -12.3018  16.9712  75.2348 H              1 RES1               0.0000
     10 H10        -14.2878  14.3854  73.4966 H              1 RES1               0.0000
     11 H11        -12.1662  14.6601  69.8642 H              1 RES1               0.0000
     12 H12        -11.1098  17.0970  73.1304 H              1 RES1               0.0000
     13 ****       -13.8742  13.7176  71.1971 LP             1 RES1               0.0000
     14 ****       -10.8116  16.3318  70.8462 LP             1 RES1               0.0000
@<TRIPOS>BOND
    1    1    2 1     
    2    2    3 ar    
    3    3    4 ar    
    4    4    5 ar    
    5    5    6 ar    
    6    6    7 ar    
    7    2    7 ar    
    8    1    8 1     
    9    1    9 1     
   10    3   10 1     
   11    5   11 1     
   12    7   12 1     
   13    4   13 1     
   14    6   14 1     
@<TRIPOS>SUBSTRUCTURE
      1 RES1           1
@<TRIPOS>SET
LONE_PAIRS      STATIC     ATOMS    <user>   **** ""
2 13 14
DONOR_HYDROGENS      STATIC     ATOMS    <user>   **** ""
2 8 9
ATOM$BLUE        STATIC     ATOMS    COLORGROUP SYSTEM
2 13 14
ATOM$RED        STATIC     ATOMS    COLORGROUP SYSTEM
2 8 9
@<TRIPOS>COMMENT
> <Gold.Version>
2022.1.0

> <Gold.Id.Protein>
6LU7|6LU7_protein|mol2

> <Gold.Protein.RotatedTorsions>
[ 3973 1471 1470 1467 ] final  156.25 input   60.00 | X-H torsion
[ 3372  414  413  411 ] final  139.18 input   60.00 | X-H torsion
[ 4268 1114 1113 1110 ] final   54.12 input   59.99 | X-H torsion
[ 4409  924  923  921 ] final -123.01 input   59.99 | X-H torsion
[ 4183 1244 1243 1241 ] final  -15.45 input   59.99 | X-H torsion
[ 3800  178  177  174 ] final   14.14 input   60.00 | X-H torsion
[ 3793  171  170  167 ] final  -89.33 input   60.00 | X-H torsion
[ 3576  185  184  181 ] final  155.93 input   60.00 | X-H torsion
[ 3523  346  345  342 ] final   20.19 input   60.01 | X-H torsion
[ 3515  339  338  335 ] final -172.63 input   60.00 | X-H torsion
[ 3663  154  153  150 ] final  -71.90 input   60.00 | X-H torsion
[ 4280 1130 1129 1126 ] final   11.29 input   60.00 | X-H torsion

> <Gold.Protein.ActiveResidues>
 VAL20   THR21   CYS22   GLY23   THR24   THR25   THR26   LEU27   ASN28   PRO39  
 ARG40   HIS41   VAL42   CYS44   THR45   SER46   ASP48   MET49   LEU50   PRO52  
 TYR54   TYR118  ASN119  ILE136  GLY138  SER139  PHE140  LEU141  ASN142  GLY143 
 SER144  CYS145  GLY146  SER147  TYR161  HIS163  HIS164  MET165  GLU166  LEU167 
 PRO168  THR169  GLY170  VAL171  HIS172  ALA173  PHE181  PHE185  VAL186  ASP187 
 ARG188  GLN189  THR190  ALA191  GLN192  ALA193 

> <Gold.Protein.RotatedAtoms>
  -14.5226   17.0715   76.3835 H   0  0  0  0  0  0  0  0  0  0  0  0  # atno 3372 bound_to 414 
   -2.6659   21.8234   75.6126 H   0  0  0  0  0  0  0  0  0  0  0  0  # atno 3515 bound_to 339 
   -3.4236   18.2166   73.0254 H   0  0  0  0  0  0  0  0  0  0  0  0  # atno 3523 bound_to 346 
   -7.2594   26.4954   63.3137 H   0  0  0  0  0  0  0  0  0  0  0  0  # atno 3576 bound_to 185 
   -7.4100   28.2373   65.5214 H   0  0  0  0  0  0  0  0  0  0  0  0  # atno 3663 bound_to 154 
   -2.3701   24.9130   72.7635 H   0  0  0  0  0  0  0  0  0  0  0  0  # atno 3793 bound_to 171 
   -6.0726   23.5034   71.6022 H   0  0  0  0  0  0  0  0  0  0  0  0  # atno 3800 bound_to 178 
  -15.7055    7.8780   78.4765 H   0  0  0  0  0  0  0  0  0  0  0  0  # atno 3973 bound_to 1471
  -20.9267   12.9394   64.5424 H   0  0  0  0  0  0  0  0  0  0  0  0  # atno 4183 bound_to 1244
  -13.9815   16.3358   61.7898 H   0  0  0  0  0  0  0  0  0  0  0  0  # atno 4268 bound_to 1114
  -15.9856   20.3321   59.2303 H   0  0  0  0  0  0  0  0  0  0  0  0  # atno 4280 bound_to 1130
  -11.7019   15.3033   57.9952 H   0  0  0  0  0  0  0  0  0  0  0  0  # atno 4409 bound_to 924 
  -15.2533    7.6402   76.9315 LP  0  0  0  0  0  0  0  0  0  0  0  0  # atno 4696 bound_to 1471
  -15.0729    9.1094   77.6212 LP  0  0  0  0  0  0  0  0  0  0  0  0  # atno 4697 bound_to 1471
  -14.0536   18.2806   75.4006 LP  0  0  0  0  0  0  0  0  0  0  0  0  # atno 4731 bound_to 414 
  -15.5210   17.5905   75.2080 LP  0  0  0  0  0  0  0  0  0  0  0  0  # atno 4732 bound_to 414 
  -12.4333   15.8354   61.8120 LP  0  0  0  0  0  0  0  0  0  0  0  0  # atno 4733 bound_to 1114
  -13.4948   15.1689   60.7654 LP  0  0  0  0  0  0  0  0  0  0  0  0  # atno 4734 bound_to 1114
  -10.3864   14.8897   57.1313 LP  0  0  0  0  0  0  0  0  0  0  0  0  # atno 4763 bound_to 924 
  -11.7734   15.2928   56.3695 LP  0  0  0  0  0  0  0  0  0  0  0  0  # atno 4764 bound_to 924 
  -19.8934   13.9096   63.7430 LP  0  0  0  0  0  0  0  0  0  0  0  0  # atno 4771 bound_to 1244
  -20.5431   12.6113   62.9955 LP  0  0  0  0  0  0  0  0  0  0  0  0  # atno 4772 bound_to 1244
   -7.1415   22.2791   71.6851 LP  0  0  0  0  0  0  0  0  0  0  0  0  # atno 4775 bound_to 178 
   -7.4072   23.6568   72.5206 LP  0  0  0  0  0  0  0  0  0  0  0  0  # atno 4776 bound_to 178 
   -2.0463   23.5031   72.0184 LP  0  0  0  0  0  0  0  0  0  0  0  0  # atno 4779 bound_to 171 
   -3.5472   24.1423   71.9459 LP  0  0  0  0  0  0  0  0  0  0  0  0  # atno 4780 bound_to 171 
   -8.7091   26.2918   64.0242 LP  0  0  0  0  0  0  0  0  0  0  0  0  # atno 4783 bound_to 185 
   -7.9880   25.0414   63.2606 LP  0  0  0  0  0  0  0  0  0  0  0  0  # atno 4784 bound_to 185 
   -2.9042   16.7537   72.5372 LP  0  0  0  0  0  0  0  0  0  0  0  0  # atno 4785 bound_to 346 
   -1.8310   17.8823   73.0282 LP  0  0  0  0  0  0  0  0  0  0  0  0  # atno 4786 bound_to 346 
   -3.5370   21.8504   74.2384 LP  0  0  0  0  0  0  0  0  0  0  0  0  # atno 4787 bound_to 339 
   -3.2689   20.4369   75.0109 LP  0  0  0  0  0  0  0  0  0  0  0  0  # atno 4788 bound_to 339 
   -6.9681   29.7318   65.0531 LP  0  0  0  0  0  0  0  0  0  0  0  0  # atno 4797 bound_to 154 
   -8.5497   29.3356   65.1435 LP  0  0  0  0  0  0  0  0  0  0  0  0  # atno 4798 bound_to 154 

> <Gold.Score>
     Score     S(PLP)   S(hbond)     S(cho)   S(metal)  DE(clash)   DE(tors)     intcor
     27.20     -24.20       1.00       0.00       0.00       0.00       0.00       0.00

> <Gold.PLP.Fitness>
27.1976

> <Gold.PLP.PLP>
-24.1976

> <Gold.PLP.part.hbond>
-2.0000

> <Gold.PLP.part.metal>
0.0000

> <Gold.PLP.part.buried>
-6.0550

> <Gold.PLP.part.nonpolar>
-16.5825

> <Gold.PLP.part.repulsive>
0.2588

> <Gold.PLP.ligand.clash>
0.0000

> <Gold.PLP.ligand.torsion>
0.0000

> <Gold.PLP.Chemscore.Hbond>
1.0000

> <Gold.PLP.Chemscore.CHOScore>
0.0000

> <Gold.PLP.Chemscore.Metal>
0.0000

> <Gold.Chemscore.Hbonds>
donor molecule, donor type, donor heavy atom, donor atom, acceptor molecule, acceptor atom, score
      L1  H     1     8       P1  1441  1.00

> <Gold.PLP.Chemscore.Internal.Correction>
0.0000

#       Name:                unknown
#       Creating user name   williammccorkindale
#       Creation time:       Tue Jun  7 14:55:39 2022


#       File generated by GOLD software.
#

@<TRIPOS>MOLECULE
unknown|prepared_Mpro-x0995|mol2|1|dock2
    14    14     1
SMALL
NO_CHARGES


@<TRIPOS>ATOM
      1 N1         -13.0926  16.1973  74.7869 N.pl3          1 RES1               0.0000
      2 C2         -12.9363  15.7412  73.4476 C.ar           1 RES1               0.0000
      3 C3         -11.6988  15.6005  72.8475 C.ar           1 RES1               0.0000
      4 N4         -11.6092  15.1582  71.5585 N.ar           1 RES1               0.0000
      5 C5         -12.7157  14.8563  70.8625 C.ar           1 RES1               0.0000
      6 N6         -13.9189  14.9797  71.4075 N.ar           1 RES1               0.0000
      7 C7         -14.0486  15.4193  72.6950 C.ar           1 RES1               0.0000
      8 H8         -12.2573  16.4523  75.3908 H              1 RES1               0.0000
      9 H9         -14.0266  16.3009  75.2319 H              1 RES1               0.0000
     10 H10        -10.8359  15.8478  73.4246 H              1 RES1               0.0000
     11 H11        -12.6172  14.5091  69.8461 H              1 RES1               0.0000
     12 H12        -15.0087  15.5274  73.1576 H              1 RES1               0.0000
     13 ****       -10.7113  15.0586  71.1297 LP             1 RES1               0.0000
     14 ****       -14.7334  14.7503  70.8746 LP             1 RES1               0.0000
@<TRIPOS>BOND
    1    1    2 1     
    2    2    3 ar    
    3    3    4 ar    
    4    4    5 ar    
    5    5    6 ar    
    6    6    7 ar    
    7    2    7 ar    
    8    1    8 1     
    9    1    9 1     
   10    3   10 1     
   11    5   11 1     
   12    7   12 1     
   13    4   13 1     
   14    6   14 1     
@<TRIPOS>SUBSTRUCTURE
      1 RES1           1
@<TRIPOS>SET
LONE_PAIRS      STATIC     ATOMS    <user>   **** ""
2 13 14
DONOR_HYDROGENS      STATIC     ATOMS    <user>   **** ""
2 8 9
ATOM$BLUE        STATIC     ATOMS    COLORGROUP SYSTEM
2 13 14
ATOM$RED        STATIC     ATOMS    COLORGROUP SYSTEM
2 8 9
@<TRIPOS>COMMENT
> <Gold.Version>
2022.1.0

> <Gold.Id.Protein>
6LU7|6LU7_protein|mol2

> <Gold.Protein.RotatedTorsions>
[ 3973 1471 1470 1467 ] final  -67.44 input   60.00 | X-H torsion
[ 3372  414  413  411 ] final   44.81 input   60.00 | X-H torsion
[ 4268 1114 1113 1110 ] final   92.33 input   59.99 | X-H torsion
[ 4409  924  923  921 ] final   44.40 input   59.99 | X-H torsion
[ 4183 1244 1243 1241 ] final  163.47 input   59.99 | X-H torsion
[ 3800  178  177  174 ] final -125.05 input   60.00 | X-H torsion
[ 3793  171  170  167 ] final  -69.10 input   60.00 | X-H torsion
[ 3576  185  184  181 ] final  -18.62 input   60.00 | X-H torsion
[ 3523  346  345  342 ] final   36.20 input   60.01 | X-H torsion
[ 3515  339  338  335 ] final  155.30 input   60.00 | X-H torsion
[ 3663  154  153  150 ] final   68.32 input   60.00 | X-H torsion
[ 4280 1130 1129 1126 ] final  -58.08 input   60.00 | X-H torsion

> <Gold.Protein.ActiveResidues>
 VAL20   THR21   CYS22   GLY23   THR24   THR25   THR26   LEU27   ASN28   PRO39  
 ARG40   HIS41   VAL42   CYS44   THR45   SER46   ASP48   MET49   LEU50   PRO52  
 TYR54   TYR118  ASN119  ILE136  GLY138  SER139  PHE140  LEU141  ASN142  GLY143 
 SER144  CYS145  GLY146  SER147  TYR161  HIS163  HIS164  MET165  GLU166  LEU167 
 PRO168  THR169  GLY170  VAL171  HIS172  ALA173  PHE181  PHE185  VAL186  ASP187 
 ARG188  GLN189  THR190  ALA191  GLN192  ALA193 

> <Gold.Protein.RotatedAtoms>
  -13.8739   18.0856   75.7222 H   0  0  0  0  0  0  0  0  0  0  0  0  # atno 3372 bound_to 414 
   -2.8225   22.1847   75.2773 H   0  0  0  0  0  0  0  0  0  0  0  0  # atno 3515 bound_to 339 
   -3.2266   18.3719   73.0969 H   0  0  0  0  0  0  0  0  0  0  0  0  # atno 3523 bound_to 346 
   -8.7427   25.4627   63.7942 H   0  0  0  0  0  0  0  0  0  0  0  0  # atno 3576 bound_to 185 
   -8.4007   29.6175   65.0594 H   0  0  0  0  0  0  0  0  0  0  0  0  # atno 3663 bound_to 154 
   -2.6851   24.9951   72.7170 H   0  0  0  0  0  0  0  0  0  0  0  0  # atno 3793 bound_to 171 
   -7.3786   22.3626   71.8721 H   0  0  0  0  0  0  0  0  0  0  0  0  # atno 3800 bound_to 178 
  -15.0100    9.0284   77.3749 H   0  0  0  0  0  0  0  0  0  0  0  0  # atno 3973 bound_to 1471
  -19.9939   13.3542   62.9730 H   0  0  0  0  0  0  0  0  0  0  0  0  # atno 4183 bound_to 1244
  -14.2129   15.9809   61.3471 H   0  0  0  0  0  0  0  0  0  0  0  0  # atno 4268 bound_to 1114
  -16.4062   20.1365   58.2710 H   0  0  0  0  0  0  0  0  0  0  0  0  # atno 4280 bound_to 1130
  -11.0569   15.0778   56.2641 H   0  0  0  0  0  0  0  0  0  0  0  0  # atno 4409 bound_to 924 
  -15.6663    8.1280   78.5609 LP  0  0  0  0  0  0  0  0  0  0  0  0  # atno 4696 bound_to 1471
  -15.3604    7.4631   77.1012 LP  0  0  0  0  0  0  0  0  0  0  0  0  # atno 4697 bound_to 1471
  -15.3235   17.8993   75.0066 LP  0  0  0  0  0  0  0  0  0  0  0  0  # atno 4731 bound_to 414 
  -14.9044   16.9506   76.2679 LP  0  0  0  0  0  0  0  0  0  0  0  0  # atno 4732 bound_to 414 
  -12.7957   16.2412   62.1032 LP  0  0  0  0  0  0  0  0  0  0  0  0  # atno 4733 bound_to 1114
  -12.8994   15.1205   60.9201 LP  0  0  0  0  0  0  0  0  0  0  0  0  # atno 4734 bound_to 1114
  -12.1603   15.4280   57.4078 LP  0  0  0  0  0  0  0  0  0  0  0  0  # atno 4763 bound_to 924 
  -10.6492   14.9816   57.8365 LP  0  0  0  0  0  0  0  0  0  0  0  0  # atno 4764 bound_to 924 
  -21.0205   12.3990   63.7986 LP  0  0  0  0  0  0  0  0  0  0  0  0  # atno 4771 bound_to 1244
  -20.3555   13.7042   64.5204 LP  0  0  0  0  0  0  0  0  0  0  0  0  # atno 4772 bound_to 1244
   -7.1733   23.8612   72.4722 LP  0  0  0  0  0  0  0  0  0  0  0  0  # atno 4775 bound_to 178 
   -6.0602   23.2236   71.4617 LP  0  0  0  0  0  0  0  0  0  0  0  0  # atno 4776 bound_to 178 
   -1.8485   23.7000   72.1966 LP  0  0  0  0  0  0  0  0  0  0  0  0  # atno 4779 bound_to 171 
   -3.4277   23.8628   71.8145 LP  0  0  0  0  0  0  0  0  0  0  0  0  # atno 4780 bound_to 171 
   -7.3026   25.5186   63.0386 LP  0  0  0  0  0  0  0  0  0  0  0  0  # atno 4783 bound_to 185 
   -7.9006   26.8547   63.7623 LP  0  0  0  0  0  0  0  0  0  0  0  0  # atno 4784 bound_to 185 
   -3.1516   16.8414   72.5492 LP  0  0  0  0  0  0  0  0  0  0  0  0  # atno 4785 bound_to 346 
   -1.7821   17.6383   72.9442 LP  0  0  0  0  0  0  0  0  0  0  0  0  # atno 4786 bound_to 346 
   -3.6653   21.3513   74.1623 LP  0  0  0  0  0  0  0  0  0  0  0  0  # atno 4787 bound_to 339 
   -2.9828   20.5721   75.4247 LP  0  0  0  0  0  0  0  0  0  0  0  0  # atno 4788 bound_to 339 
   -7.7382   28.2050   65.5219 LP  0  0  0  0  0  0  0  0  0  0  0  0  # atno 4797 bound_to 154 
   -6.7819   29.4724   65.1399 LP  0  0  0  0  0  0  0  0  0  0  0  0  # atno 4798 bound_to 154 

> <Gold.Score>
     Score     S(PLP)   S(hbond)     S(cho)   S(metal)  DE(clash)   DE(tors)     intcor
     27.50     -24.50       1.00       0.00       0.00       0.00       0.00       0.00

> <Gold.PLP.Fitness>
27.4960

> <Gold.PLP.PLP>
-24.4960

> <Gold.PLP.part.hbond>
-2.0000

> <Gold.PLP.part.metal>
0.0000

> <Gold.PLP.part.buried>
-6.0237

> <Gold.PLP.part.nonpolar>
-17.0464

> <Gold.PLP.part.repulsive>
0.3094

> <Gold.PLP.ligand.clash>
0.0000

> <Gold.PLP.ligand.torsion>
0.0000

> <Gold.PLP.Chemscore.Hbond>
1.0000

> <Gold.PLP.Chemscore.CHOScore>
0.0000

> <Gold.PLP.Chemscore.Metal>
0.0000

> <Gold.Chemscore.Hbonds>
donor molecule, donor type, donor heavy atom, donor atom, acceptor molecule, acceptor atom, score
      L1  H     1     9       P1  1441  1.00

> <Gold.PLP.Chemscore.Internal.Correction>
0.0000

#       Name:                unknown
#       Creating user name   williammccorkindale
#       Creation time:       Tue Jun  7 14:55:40 2022


#       File generated by GOLD software.
#

@<TRIPOS>MOLECULE
unknown|prepared_Mpro-x1093|mol2|1|dock1
    41    43     1
SMALL
NO_CHARGES


@<TRIPOS>ATOM
      1 C1         -12.6897  16.1668  74.0980 C.3            1 RES1               0.0000
      2 N2         -12.3807  15.1839  73.1129 N.3            1 RES1               0.0000
      3 C3         -13.4748  14.3738  72.6796 C.3            1 RES1               0.0000
      4 C4         -12.9166  13.2704  71.8053 C.3            1 RES1               0.0000
      5 N5         -12.2541  13.8536  70.6625 N.am           1 RES1               0.0000
      6 C6         -11.9052  15.2550  70.6916 C.3            1 RES1               0.0000
      7 C7         -11.4778  15.6092  72.0947 C.3            1 RES1               0.0000
      8 C8         -11.9702  13.0256  69.5498 C.2            1 RES1               0.0000
      9 O9         -12.3086  11.8201  69.6040 O.2            1 RES1               0.0000
     10 C10        -11.3001  13.5431  68.3556 C.3            1 RES1               0.0000
     11 C11        -10.9934  12.4889  67.3655 C.2            1 RES1               0.0000
     12 C12        -10.2854  11.3343  67.6093 C.2            1 RES1               0.0000
     13 N13        -10.2326  10.6606  66.4558 N.pl3          1 RES1               0.0000
     14 C14        -10.8746  11.3372  65.4974 C.ar           1 RES1               0.0000
     15 N15        -11.1219  11.1227  64.1809 N.ar           1 RES1               0.0000
     16 C16        -11.8027  11.9565  63.3950 C.ar           1 RES1               0.0000
     17 C17        -12.3003  13.1245  63.9345 C.ar           1 RES1               0.0000
     18 C18        -12.0936  13.4207  65.2687 C.ar           1 RES1               0.0000
     19 C19        -11.3809  12.5181  66.0321 C.ar           1 RES1               0.0000
     20 H20        -13.2786  15.7433  74.9335 H              1 RES1               0.0000
     21 H21        -11.7017  16.5729  74.4619 H              1 RES1               0.0000
     22 H22        -13.2182  17.0406  73.6637 H              1 RES1               0.0000
     23 H23        -13.9176  13.9168  73.6098 H              1 RES1               0.0000
     24 H24        -14.2747  14.9444  72.1448 H              1 RES1               0.0000
     25 H25        -13.6944  12.5335  71.5223 H              1 RES1               0.0000
     26 H26        -12.1035  12.7877  72.4170 H              1 RES1               0.0000
     27 H27        -11.0040  15.4513  70.0395 H              1 RES1               0.0000
     28 H28        -12.7315  15.9091  70.3677 H              1 RES1               0.0000
     29 H29        -10.5077  15.0526  72.2659 H              1 RES1               0.0000
     30 H30        -11.1993  16.6845  72.1667 H              1 RES1               0.0000
     31 H31        -10.3617  14.0521  68.6776 H              1 RES1               0.0000
     32 H32        -11.9384  14.3123  67.8619 H              1 RES1               0.0000
     33 H33         -9.8484  11.0304  68.5744 H              1 RES1               0.0000
     34 H34         -9.7612   9.7485  66.3290 H              1 RES1               0.0000
     35 H35        -11.9931  11.7772  62.3451 H              1 RES1               0.0000
     36 H36        -12.8579  13.8288  63.3354 H              1 RES1               0.0000
     37 H37        -12.4466  14.3051  65.7625 H              1 RES1               0.0000
     38 ****       -11.8321  14.5233  73.6254 LP             1 RES1               0.0000
     39 ****       -12.7669  11.4656  70.4190 LP             1 RES1               0.0000
     40 ****       -12.1203  11.2128  68.8322 LP             1 RES1               0.0000
     41 ****       -10.7690  10.2811  63.7719 LP             1 RES1               0.0000
@<TRIPOS>BOND
    1    1    2 1     
    2    2    3 1     
    3    3    4 1     
    4    4    5 1     
    5    5    6 1     
    6    6    7 1     
    7    5    8 am    
    8    8    9 2     
    9    8   10 1     
   10   10   11 1     
   11   11   12 2     
   12   12   13 1     
   13   13   14 1     
   14   14   15 ar    
   15   15   16 ar    
   16   16   17 ar    
   17   17   18 ar    
   18   18   19 ar    
   19    7    2 1     
   20   19   11 1     
   21   19   14 ar    
   22    1   20 1     
   23    1   21 1     
   24    1   22 1     
   25    3   23 1     
   26    3   24 1     
   27    4   25 1     
   28    4   26 1     
   29    6   27 1     
   30    6   28 1     
   31    7   29 1     
   32    7   30 1     
   33   10   31 1     
   34   10   32 1     
   35   12   33 1     
   36   13   34 1     
   37   16   35 1     
   38   17   36 1     
   39   18   37 1     
   40    2   38 1     
   41    9   39 1     
   42    9   40 1     
   43   15   41 1     
@<TRIPOS>SUBSTRUCTURE
      1 RES1           1
@<TRIPOS>SET
LONE_PAIRS      STATIC     ATOMS    <user>   **** ""
4 38 39 40 41
DONOR_HYDROGENS      STATIC     ATOMS    <user>   **** ""
1 34
ATOM$BLUE        STATIC     ATOMS    COLORGROUP SYSTEM
4 38 39 40 41
ATOM$RED        STATIC     ATOMS    COLORGROUP SYSTEM
1 34
@<TRIPOS>COMMENT
> <Gold.Version>
2022.1.0

> <Gold.Id.Protein>
6LU7|6LU7_protein|mol2

> <Gold.Protein.RotatedTorsions>
[ 3973 1471 1470 1467 ] final -166.90 input   60.00 | X-H torsion
[ 3372  414  413  411 ] final  114.64 input   60.00 | X-H torsion
[ 4268 1114 1113 1110 ] final -160.67 input   59.99 | X-H torsion
[ 4409  924  923  921 ] final   93.37 input   59.99 | X-H torsion
[ 4183 1244 1243 1241 ] final  116.76 input   59.99 | X-H torsion
[ 3800  178  177  174 ] final   94.12 input   60.00 | X-H torsion
[ 3793  171  170  167 ] final  134.17 input   60.00 | X-H torsion
[ 3576  185  184  181 ] final   68.49 input   60.00 | X-H torsion
[ 3523  346  345  342 ] final -164.26 input   60.01 | X-H torsion
[ 3515  339  338  335 ] final  119.46 input   60.00 | X-H torsion
[ 3663  154  153  150 ] final  173.82 input   60.00 | X-H torsion
[ 4280 1130 1129 1126 ] final -122.71 input   60.00 | X-H torsion

> <Gold.Protein.ActiveResidues>
 VAL20   THR21   CYS22   GLY23   THR24   THR25   THR26   LEU27   ASN28   PRO39  
 ARG40   HIS41   VAL42   CYS44   THR45   SER46   ASP48   MET49   LEU50   PRO52  
 TYR54   TYR118  ASN119  ILE136  GLY138  SER139  PHE140  LEU141  ASN142  GLY143 
 SER144  CYS145  GLY146  SER147  TYR161  HIS163  HIS164  MET165  GLU166  LEU167 
 PRO168  THR169  GLY170  VAL171  HIS172  ALA173  PHE181  PHE185  VAL186  ASP187 
 ARG188  GLN189  THR190  ALA191  GLN192  ALA193 

> <Gold.Protein.RotatedAtoms>
  -14.1891   17.2879   76.3646 H   0  0  0  0  0  0  0  0  0  0  0  0  # atno 3372 bound_to 414 
   -3.1150   22.2923   74.7928 H   0  0  0  0  0  0  0  0  0  0  0  0  # atno 3515 bound_to 339 
   -1.9736   17.0722   72.7277 H   0  0  0  0  0  0  0  0  0  0  0  0  # atno 3523 bound_to 346 
   -8.3637   26.6845   63.9612 H   0  0  0  0  0  0  0  0  0  0  0  0  # atno 3576 bound_to 185 
   -6.9110   29.6619   65.0790 H   0  0  0  0  0  0  0  0  0  0  0  0  # atno 3663 bound_to 154 
   -2.2667   23.4109   71.8934 H   0  0  0  0  0  0  0  0  0  0  0  0  # atno 3793 bound_to 171 
   -6.8836   23.9875   72.3480 H   0  0  0  0  0  0  0  0  0  0  0  0  # atno 3800 bound_to 178 
  -15.5711    8.4491   78.5542 H   0  0  0  0  0  0  0  0  0  0  0  0  # atno 3973 bound_to 1471
  -20.4168   12.7466   62.9196 H   0  0  0  0  0  0  0  0  0  0  0  0  # atno 4183 bound_to 1244
  -13.0957   15.1100   60.8385 H   0  0  0  0  0  0  0  0  0  0  0  0  # atno 4268 bound_to 1114
  -16.2976   19.1840   57.9833 H   0  0  0  0  0  0  0  0  0  0  0  0  # atno 4280 bound_to 1130
  -10.4828   14.9143   56.7597 H   0  0  0  0  0  0  0  0  0  0  0  0  # atno 4409 bound_to 924 
  -15.4924    7.3268   77.3786 LP  0  0  0  0  0  0  0  0  0  0  0  0  # atno 4696 bound_to 1471
  -14.9692    8.8476   77.0959 LP  0  0  0  0  0  0  0  0  0  0  0  0  # atno 4697 bound_to 1471
  -14.3518   18.3491   75.1417 LP  0  0  0  0  0  0  0  0  0  0  0  0  # atno 4731 bound_to 414 
  -15.5587   17.3042   75.4859 LP  0  0  0  0  0  0  0  0  0  0  0  0  # atno 4732 bound_to 414 
  -14.1829   16.1212   61.5044 LP  0  0  0  0  0  0  0  0  0  0  0  0  # atno 4733 bound_to 1114
  -12.6372   16.1177   62.0311 LP  0  0  0  0  0  0  0  0  0  0  0  0  # atno 4734 bound_to 1114
  -12.0380   15.3772   56.6376 LP  0  0  0  0  0  0  0  0  0  0  0  0  # atno 4763 bound_to 924 
  -11.3497   15.1971   58.1075 LP  0  0  0  0  0  0  0  0  0  0  0  0  # atno 4764 bound_to 924 
  -20.9969   12.7829   64.4395 LP  0  0  0  0  0  0  0  0  0  0  0  0  # atno 4771 bound_to 1244
  -19.9532   13.9322   63.9332 LP  0  0  0  0  0  0  0  0  0  0  0  0  # atno 4772 bound_to 1244
   -6.1558   22.9097   71.3698 LP  0  0  0  0  0  0  0  0  0  0  0  0  # atno 4775 bound_to 178 
   -7.5762   22.5387   72.0849 LP  0  0  0  0  0  0  0  0  0  0  0  0  # atno 4776 bound_to 178 
   -3.5633   24.3761   72.0813 LP  0  0  0  0  0  0  0  0  0  0  0  0  # atno 4779 bound_to 171 
   -2.1343   24.7822   72.7593 LP  0  0  0  0  0  0  0  0  0  0  0  0  # atno 4780 bound_to 171 
   -8.4391   25.1187   63.5251 LP  0  0  0  0  0  0  0  0  0  0  0  0  # atno 4783 bound_to 185 
   -7.1458   26.0241   63.1077 LP  0  0  0  0  0  0  0  0  0  0  0  0  # atno 4784 bound_to 185 
   -2.6102   18.4973   73.1882 LP  0  0  0  0  0  0  0  0  0  0  0  0  # atno 4785 bound_to 346 
   -3.5853   17.2913   72.6770 LP  0  0  0  0  0  0  0  0  0  0  0  0  # atno 4786 bound_to 346 
   -3.6244   20.8081   74.3619 LP  0  0  0  0  0  0  0  0  0  0  0  0  # atno 4787 bound_to 339 
   -2.7291   21.0069   75.7130 LP  0  0  0  0  0  0  0  0  0  0  0  0  # atno 4788 bound_to 339 
   -8.5199   29.4206   65.1171 LP  0  0  0  0  0  0  0  0  0  0  0  0  # atno 4797 bound_to 154 
   -7.5003   28.2121   65.5250 LP  0  0  0  0  0  0  0  0  0  0  0  0  # atno 4798 bound_to 154 

> <Gold.Score>
     Score     S(PLP)   S(hbond)     S(cho)   S(metal)  DE(clash)   DE(tors)     intcor
     52.58     -49.69       0.00       1.00       0.00       0.00       0.06       0.00

> <Gold.PLP.Fitness>
52.5756

> <Gold.PLP.PLP>
-49.6899

> <Gold.PLP.part.hbond>
0.0000

> <Gold.PLP.part.metal>
0.0000

> <Gold.PLP.part.buried>
-6.6240

> <Gold.PLP.part.nonpolar>
-44.4304

> <Gold.PLP.part.repulsive>
0.4492

> <Gold.PLP.ligand.clash>
0.0000

> <Gold.PLP.ligand.torsion>
0.0573

> <Gold.PLP.Chemscore.Hbond>
0.0000

> <Gold.PLP.Chemscore.CHOScore>
1.0000

> <Gold.PLP.Chemscore.Metal>
0.0000

> <Gold.Chemscore.Hbonds>
donor molecule, donor type, donor heavy atom, donor atom, acceptor molecule, acceptor atom, score
      L1  C    16    35       P1  1081  1.00

> <Gold.PLP.Chemscore.Internal.Correction>
0.0004

#       Name:                unknown
#       Creating user name   williammccorkindale
#       Creation time:       Tue Jun  7 14:55:40 2022


#       File generated by GOLD software.
#

@<TRIPOS>MOLECULE
unknown|prepared_Mpro-x1093|mol2|1|dock2
    41    43     1
SMALL
NO_CHARGES


@<TRIPOS>ATOM
      1 C1         -12.8234  15.5927  74.1935 C.3            1 RES1               0.0000
      2 N2         -12.6995  15.4894  72.7773 N.3            1 RES1               0.0000
      3 C3         -11.4011  15.7601  72.2463 C.3            1 RES1               0.0000
      4 C4         -11.5181  15.8060  70.7370 C.3            1 RES1               0.0000
      5 N5         -11.9902  14.5296  70.2542 N.am           1 RES1               0.0000
      6 C6         -12.5947  13.6056  71.1853 C.3            1 RES1               0.0000
      7 C7         -13.4002  14.3978  72.1855 C.3            1 RES1               0.0000
      8 C8         -11.8415  14.2298  68.8786 C.2            1 RES1               0.0000
      9 O9         -11.3037  15.0860  68.1381 O.2            1 RES1               0.0000
     10 C10        -12.2963  12.9581  68.3139 C.3            1 RES1               0.0000
     11 C11        -11.3092  12.3499  67.3967 C.2            1 RES1               0.0000
     12 C12        -10.0939  11.8152  67.7586 C.2            1 RES1               0.0000
     13 N13         -9.5135  11.3765  66.6371 N.pl3          1 RES1               0.0000
     14 C14        -10.3070  11.6097  65.5861 C.ar           1 RES1               0.0000
     15 N15        -10.2165  11.3770  64.2527 N.ar           1 RES1               0.0000
     16 C16        -11.1548  11.7034  63.3641 C.ar           1 RES1               0.0000
     17 C17        -12.3061  12.3211  63.8065 C.ar           1 RES1               0.0000
     18 C18        -12.4791  12.5950  65.1503 C.ar           1 RES1               0.0000
     19 C19        -11.4722  12.2331  66.0224 C.ar           1 RES1               0.0000
     20 H20        -12.3791  16.5296  74.5798 H              1 RES1               0.0000
     21 H21        -13.9278  15.5430  74.4200 H              1 RES1               0.0000
     22 H22        -12.3825  14.7183  74.7155 H              1 RES1               0.0000
     23 H23        -11.1122  16.7822  72.6234 H              1 RES1               0.0000
     24 H24        -10.6204  15.0258  72.5666 H              1 RES1               0.0000
     25 H25        -10.5705  16.1237  70.2583 H              1 RES1               0.0000
     26 H26        -12.3461  16.5390  70.5242 H              1 RES1               0.0000
     27 H27        -13.3369  12.9394  70.6551 H              1 RES1               0.0000
     28 H28        -11.8544  12.9752  71.7051 H              1 RES1               0.0000
     29 H29        -14.2601  14.8417  71.5991 H              1 RES1               0.0000
     30 H30        -13.8862  13.7252  72.9276 H              1 RES1               0.0000
     31 H31        -13.2570  13.1404  67.7779 H              1 RES1               0.0000
     32 H32        -12.5092  12.2308  69.1316 H              1 RES1               0.0000
     33 H33         -9.6844  11.7628  68.7805 H              1 RES1               0.0000
     34 H34         -8.5844  10.9234  66.5946 H              1 RES1               0.0000
     35 H35        -11.0724  11.5152  62.3018 H              1 RES1               0.0000
     36 H36        -13.0926  12.6028  63.1224 H              1 RES1               0.0000
     37 H37        -13.3425  13.0711  65.5730 H              1 RES1               0.0000
     38 ****       -13.2184  16.2802  72.4525 LP             1 RES1               0.0000
     39 ****       -10.9921  15.9548  68.5228 LP             1 RES1               0.0000
     40 ****       -11.1861  14.9003  67.1625 LP             1 RES1               0.0000
     41 ****        -9.3890  10.9299  63.9131 LP             1 RES1               0.0000
@<TRIPOS>BOND
    1    1    2 1     
    2    2    3 1     
    3    3    4 1     
    4    4    5 1     
    5    5    6 1     
    6    6    7 1     
    7    5    8 am    
    8    8    9 2     
    9    8   10 1     
   10   10   11 1     
   11   11   12 2     
   12   12   13 1     
   13   13   14 1     
   14   14   15 ar    
   15   15   16 ar    
   16   16   17 ar    
   17   17   18 ar    
   18   18   19 ar    
   19    7    2 1     
   20   19   11 1     
   21   19   14 ar    
   22    1   20 1     
   23    1   21 1     
   24    1   22 1     
   25    3   23 1     
   26    3   24 1     
   27    4   25 1     
   28    4   26 1     
   29    6   27 1     
   30    6   28 1     
   31    7   29 1     
   32    7   30 1     
   33   10   31 1     
   34   10   32 1     
   35   12   33 1     
   36   13   34 1     
   37   16   35 1     
   38   17   36 1     
   39   18   37 1     
   40    2   38 1     
   41    9   39 1     
   42    9   40 1     
   43   15   41 1     
@<TRIPOS>SUBSTRUCTURE
      1 RES1           1
@<TRIPOS>SET
LONE_PAIRS      STATIC     ATOMS    <user>   **** ""
4 38 39 40 41
DONOR_HYDROGENS      STATIC     ATOMS    <user>   **** ""
1 34
ATOM$BLUE        STATIC     ATOMS    COLORGROUP SYSTEM
4 38 39 40 41
ATOM$RED        STATIC     ATOMS    COLORGROUP SYSTEM
1 34
@<TRIPOS>COMMENT
> <Gold.Version>
2022.1.0

> <Gold.Id.Protein>
6LU7|6LU7_protein|mol2

> <Gold.Protein.RotatedTorsions>
[ 3973 1471 1470 1467 ] final   40.19 input   60.00 | X-H torsion
[ 3372  414  413  411 ] final  153.84 input   60.00 | X-H torsion
[ 4268 1114 1113 1110 ] final  126.72 input   59.99 | X-H torsion
[ 4409  924  923  921 ] final   62.17 input   59.99 | X-H torsion
[ 4183 1244 1243 1241 ] final  -39.54 input   59.99 | X-H torsion
[ 3800  178  177  174 ] final  -32.89 input   60.00 | X-H torsion
[ 3793  171  170  167 ] final  -62.12 input   60.00 | X-H torsion
[ 3576  185  184  181 ] final  103.07 input   60.00 | X-H torsion
[ 3523  346  345  342 ] final  123.08 input   60.01 | X-H torsion
[ 3515  339  338  335 ] final -158.49 input   60.00 | X-H torsion
[ 3663  154  153  150 ] final  102.93 input   60.00 | X-H torsion
[ 4280 1130 1129 1126 ] final  166.23 input   60.00 | X-H torsion

> <Gold.Protein.ActiveResidues>
 VAL20   THR21   CYS22   GLY23   THR24   THR25   THR26   LEU27   ASN28   PRO39  
 ARG40   HIS41   VAL42   CYS44   THR45   SER46   ASP48   MET49   LEU50   PRO52  
 TYR54   TYR118  ASN119  ILE136  GLY138  SER139  PHE140  LEU141  ASN142  GLY143 
 SER144  CYS145  GLY146  SER147  TYR161  HIS163  HIS164  MET165  GLU166  LEU167 
 PRO168  THR169  GLY170  VAL171  HIS172  ALA173  PHE181  PHE185  VAL186  ASP187 
 ARG188  GLN189  THR190  ALA191  GLN192  ALA193 

> <Gold.Protein.RotatedAtoms>
  -14.7412   16.9901   76.3322 H   0  0  0  0  0  0  0  0  0  0  0  0  # atno 3372 bound_to 414 
   -2.6432   21.6117   75.7009 H   0  0  0  0  0  0  0  0  0  0  0  0  # atno 3515 bound_to 339 
   -1.9649   18.1157   73.1042 H   0  0  0  0  0  0  0  0  0  0  0  0  # atno 3523 bound_to 346 
   -7.8757   26.8483   63.7498 H   0  0  0  0  0  0  0  0  0  0  0  0  # atno 3576 bound_to 185 
   -7.9550   29.9386   64.9672 H   0  0  0  0  0  0  0  0  0  0  0  0  # atno 3663 bound_to 154 
   -2.7949   25.0004   72.6868 H   0  0  0  0  0  0  0  0  0  0  0  0  # atno 3793 bound_to 171 
   -6.2158   22.8122   71.3574 H   0  0  0  0  0  0  0  0  0  0  0  0  # atno 3800 bound_to 178 
  -15.2772    7.5963   76.9732 H   0  0  0  0  0  0  0  0  0  0  0  0  # atno 3973 bound_to 1471
  -20.7338   13.2618   64.6493 H   0  0  0  0  0  0  0  0  0  0  0  0  # atno 4183 bound_to 1244
  -14.0877   15.5833   60.9829 H   0  0  0  0  0  0  0  0  0  0  0  0  # atno 4268 bound_to 1114
  -15.7747   18.5875   58.7279 H   0  0  0  0  0  0  0  0  0  0  0  0  # atno 4280 bound_to 1130
  -10.8036   15.0038   56.3822 H   0  0  0  0  0  0  0  0  0  0  0  0  # atno 4409 bound_to 924 
  -15.0554    9.0979   77.5597 LP  0  0  0  0  0  0  0  0  0  0  0  0  # atno 4696 bound_to 1471
  -15.7022    7.9355   78.5069 LP  0  0  0  0  0  0  0  0  0  0  0  0  # atno 4697 bound_to 1471
  -13.9284   18.1833   75.5815 LP  0  0  0  0  0  0  0  0  0  0  0  0  # atno 4731 bound_to 414 
  -15.4261   17.7698   75.0787 LP  0  0  0  0  0  0  0  0  0  0  0  0  # atno 4732 bound_to 414 
  -13.3153   16.4413   62.1298 LP  0  0  0  0  0  0  0  0  0  0  0  0  # atno 4733 bound_to 1114
  -12.5059   15.3209   61.2603 LP  0  0  0  0  0  0  0  0  0  0  0  0  # atno 4734 bound_to 1114
  -12.1904   15.4318   57.1181 LP  0  0  0  0  0  0  0  0  0  0  0  0  # atno 4763 bound_to 924 
  -10.8742   15.0523   58.0072 LP  0  0  0  0  0  0  0  0  0  0  0  0  # atno 4764 bound_to 924 
  -19.8516   13.7671   63.3788 LP  0  0  0  0  0  0  0  0  0  0  0  0  # atno 4771 bound_to 1244
  -20.7792   12.4291   63.2520 LP  0  0  0  0  0  0  0  0  0  0  0  0  # atno 4772 bound_to 1244
   -7.6222   22.6196   72.1531 LP  0  0  0  0  0  0  0  0  0  0  0  0  # atno 4775 bound_to 178 
   -6.7822   24.0124   72.2992 LP  0  0  0  0  0  0  0  0  0  0  0  0  # atno 4776 bound_to 178 
   -1.8024   23.7833   72.2607 LP  0  0  0  0  0  0  0  0  0  0  0  0  # atno 4779 bound_to 171 
   -3.3633   23.7741   71.7808 LP  0  0  0  0  0  0  0  0  0  0  0  0  # atno 4780 bound_to 171 
   -8.7590   25.4829   63.8062 LP  0  0  0  0  0  0  0  0  0  0  0  0  # atno 4783 bound_to 185 
   -7.3174   25.4950   63.0393 LP  0  0  0  0  0  0  0  0  0  0  0  0  # atno 4784 bound_to 185 
   -3.5794   18.0033   72.9338 LP  0  0  0  0  0  0  0  0  0  0  0  0  # atno 4785 bound_to 346 
   -2.6249   16.7344   72.5522 LP  0  0  0  0  0  0  0  0  0  0  0  0  # atno 4786 bound_to 346 
   -3.4397   22.0318   74.3455 LP  0  0  0  0  0  0  0  0  0  0  0  0  # atno 4787 bound_to 339 
   -3.3891   20.4686   74.8149 LP  0  0  0  0  0  0  0  0  0  0  0  0  # atno 4788 bound_to 339 
   -8.2537   28.4118   65.4444 LP  0  0  0  0  0  0  0  0  0  0  0  0  # atno 4797 bound_to 154 
   -6.7151   28.9421   65.3103 LP  0  0  0  0  0  0  0  0  0  0  0  0  # atno 4798 bound_to 154 

> <Gold.Score>
     Score     S(PLP)   S(hbond)     S(cho)   S(metal)  DE(clash)   DE(tors)     intcor
     50.30     -47.84       0.00       1.00       0.00       0.00       0.27       0.00

> <Gold.PLP.Fitness>
50.2984

> <Gold.PLP.PLP>
-47.8388

> <Gold.PLP.part.hbond>
0.0000

> <Gold.PLP.part.metal>
0.0000

> <Gold.PLP.part.buried>
-7.1929

> <Gold.PLP.part.nonpolar>
-41.2357

> <Gold.PLP.part.repulsive>
0.3453

> <Gold.PLP.ligand.clash>
0.0000

> <Gold.PLP.ligand.torsion>
0.2704

> <Gold.PLP.Chemscore.Hbond>
0.0000

> <Gold.PLP.Chemscore.CHOScore>
1.0000

> <Gold.PLP.Chemscore.Metal>
0.0000

> <Gold.Chemscore.Hbonds>
donor molecule, donor type, donor heavy atom, donor atom, acceptor molecule, acceptor atom, score
      L1  C    16    35       P1  1081  1.00

> <Gold.PLP.Chemscore.Internal.Correction>
0.0004

#       Name:                unknown
#       Creating user name   williammccorkindale
#       Creation time:       Tue Jun  7 14:55:40 2022


#       File generated by GOLD software.
#

@<TRIPOS>MOLECULE
unknown|prepared_Mpro-x0946|mol2|1|dock1
    18    18     1
SMALL
NO_CHARGES


@<TRIPOS>ATOM
      1 Br1        -12.8977  15.8801  73.9045 Br             1 RES1               0.0000
      2 C2         -12.3965  15.3666  72.1425 C.ar           1 RES1               0.0000
      3 C3         -11.4991  16.1025  71.3771 C.ar           1 RES1               0.0000
      4 C4         -11.1637  15.6906  70.0994 C.ar           1 RES1               0.0000
      5 C5         -11.7010  14.5475  69.5438 C.ar           1 RES1               0.0000
      6 S6         -11.2575  14.0519  67.9249 S.o2           1 RES1               0.0000
      7 N7         -12.6025  14.4029  66.8787 N.3            1 RES1               0.0000
      8 O8         -10.0766  14.7829  67.4205 O.2            1 RES1               0.0000
      9 O9         -11.0894  12.5708  67.9364 O.2            1 RES1               0.0000
     10 C10        -12.5924  13.8143  70.3009 C.ar           1 RES1               0.0000
     11 C11        -12.9392  14.2215  71.5950 C.ar           1 RES1               0.0000
     12 H12        -11.0846  16.9947  71.8207 H              1 RES1               0.0000
     13 H13        -10.4587  16.2740  69.5056 H              1 RES1               0.0000
     14 H14        -12.2203  15.0515  66.1354 H              1 RES1               0.0000
     15 H15        -13.3145  14.9337  67.4141 H              1 RES1               0.0000
     16 H16        -13.0003  12.9252  69.8481 H              1 RES1               0.0000
     17 H17        -13.6381  13.6335  72.1698 H              1 RES1               0.0000
     18 ****       -13.0071  13.5688  66.5036 LP             1 RES1               0.0000
@<TRIPOS>BOND
    1    1    2 1     
    2    2    3 ar    
    3    3    4 ar    
    4    4    5 ar    
    5    5    6 1     
    6    6    7 1     
    7    6    8 2     
    8    6    9 2     
    9    5   10 ar    
   10   10   11 ar    
   11   11    2 ar    
   12    3   12 1     
   13    4   13 1     
   14    7   14 1     
   15    7   15 1     
   16   10   16 1     
   17   11   17 1     
   18    7   18 1     
@<TRIPOS>SUBSTRUCTURE
      1 RES1           1
@<TRIPOS>SET
LONE_PAIRS      STATIC     ATOMS    <user>   **** ""
3 18 8 9
DONOR_HYDROGENS      STATIC     ATOMS    <user>   **** ""
2 14 15
ATOM$BLUE        STATIC     ATOMS    COLORGROUP SYSTEM
3 18 8 9
ATOM$RED        STATIC     ATOMS    COLORGROUP SYSTEM
2 14 15
@<TRIPOS>COMMENT
> <Gold.Version>
2022.1.0

> <Gold.Id.Protein>
6LU7|6LU7_protein|mol2

> <Gold.Protein.RotatedTorsions>
[ 3973 1471 1470 1467 ] final  175.98 input   60.00 | X-H torsion
[ 3372  414  413  411 ] final  -92.60 input   60.00 | X-H torsion
[ 4268 1114 1113 1110 ] final  121.22 input   59.99 | X-H torsion
[ 4409  924  923  921 ] final  -47.04 input   59.99 | X-H torsion
[ 4183 1244 1243 1241 ] final -142.73 input   59.99 | X-H torsion
[ 3800  178  177  174 ] final -134.65 input   60.00 | X-H torsion
[ 3793  171  170  167 ] final   77.14 input   60.00 | X-H torsion
[ 3576  185  184  181 ] final    9.23 input   60.00 | X-H torsion
[ 3523  346  345  342 ] final  158.19 input   60.01 | X-H torsion
[ 3515  339  338  335 ] final   54.59 input   60.00 | X-H torsion
[ 3663  154  153  150 ] final  130.33 input   60.00 | X-H torsion
[ 4280 1130 1129 1126 ] final   -4.45 input   60.00 | X-H torsion

> <Gold.Protein.ActiveResidues>
 VAL20   THR21   CYS22   GLY23   THR24   THR25   THR26   LEU27   ASN28   PRO39  
 ARG40   HIS41   VAL42   CYS44   THR45   SER46   ASP48   MET49   LEU50   PRO52  
 TYR54   TYR118  ASN119  ILE136  GLY138  SER139  PHE140  LEU141  ASN142  GLY143 
 SER144  CYS145  GLY146  SER147  TYR161  HIS163  HIS164  MET165  GLU166  LEU167 
 PRO168  THR169  GLY170  VAL171  HIS172  ALA173  PHE181  PHE185  VAL186  ASP187 
 ARG188  GLN189  THR190  ALA191  GLN192  ALA193 

> <Gold.Protein.RotatedAtoms>
  -15.4695   17.6927   75.1364 H   0  0  0  0  0  0  0  0  0  0  0  0  # atno 3372 bound_to 414 
   -3.6040   21.6595   74.1856 H   0  0  0  0  0  0  0  0  0  0  0  0  # atno 3515 bound_to 339 
   -1.7878   17.6068   72.9349 H   0  0  0  0  0  0  0  0  0  0  0  0  # atno 3523 bound_to 346 
   -8.8149   25.8763   63.9578 H   0  0  0  0  0  0  0  0  0  0  0  0  # atno 3576 bound_to 185 
   -7.5140   29.9845   64.9626 H   0  0  0  0  0  0  0  0  0  0  0  0  # atno 3663 bound_to 154 
   -3.1303   23.5701   71.7265 H   0  0  0  0  0  0  0  0  0  0  0  0  # atno 3793 bound_to 171 
   -7.4779   22.4345   71.9695 H   0  0  0  0  0  0  0  0  0  0  0  0  # atno 3800 bound_to 178 
  -15.6493    8.1819   78.5632 H   0  0  0  0  0  0  0  0  0  0  0  0  # atno 3973 bound_to 1471
  -19.8757   13.8759   63.6298 H   0  0  0  0  0  0  0  0  0  0  0  0  # atno 4183 bound_to 1244
  -14.1285   15.6458   61.0329 H   0  0  0  0  0  0  0  0  0  0  0  0  # atno 4268 bound_to 1114
  -16.1089   20.4007   59.0162 H   0  0  0  0  0  0  0  0  0  0  0  0  # atno 4280 bound_to 1130
  -12.1596   15.4217   56.9444 H   0  0  0  0  0  0  0  0  0  0  0  0  # atno 4409 bound_to 924 
  -15.3829    7.4332   77.1431 LP  0  0  0  0  0  0  0  0  0  0  0  0  # atno 4696 bound_to 1471
  -14.9998    9.0104   77.3223 LP  0  0  0  0  0  0  0  0  0  0  0  0  # atno 4697 bound_to 1471
  -14.6435   17.0148   76.3637 LP  0  0  0  0  0  0  0  0  0  0  0  0  # atno 4731 bound_to 414 
  -13.9776   18.2308   75.5007 LP  0  0  0  0  0  0  0  0  0  0  0  0  # atno 4732 bound_to 414 
  -13.2274   16.4239   62.1422 LP  0  0  0  0  0  0  0  0  0  0  0  0  # atno 4733 bound_to 1114
  -12.5526   15.2753   61.1976 LP  0  0  0  0  0  0  0  0  0  0  0  0  # atno 4734 bound_to 1114
  -11.0316   15.1008   58.0724 LP  0  0  0  0  0  0  0  0  0  0  0  0  # atno 4763 bound_to 924 
  -10.6672   14.9624   56.4867 LP  0  0  0  0  0  0  0  0  0  0  0  0  # atno 4764 bound_to 924 
  -20.6181   12.5445   63.0606 LP  0  0  0  0  0  0  0  0  0  0  0  0  # atno 4771 bound_to 1244
  -20.8769   13.0333   64.5970 LP  0  0  0  0  0  0  0  0  0  0  0  0  # atno 4772 bound_to 1244
   -7.0420   23.9346   72.4251 LP  0  0  0  0  0  0  0  0  0  0  0  0  # atno 4775 bound_to 178 
   -6.0915   23.0778   71.4108 LP  0  0  0  0  0  0  0  0  0  0  0  0  # atno 4776 bound_to 178 
   -3.0857   24.9576   72.5755 LP  0  0  0  0  0  0  0  0  0  0  0  0  # atno 4779 bound_to 171 
   -1.7421   24.0404   72.4333 LP  0  0  0  0  0  0  0  0  0  0  0  0  # atno 4780 bound_to 171 
   -7.6104   25.1917   63.1042 LP  0  0  0  0  0  0  0  0  0  0  0  0  # atno 4783 bound_to 185 
   -7.5201   26.7651   63.5319 LP  0  0  0  0  0  0  0  0  0  0  0  0  # atno 4784 bound_to 185 
   -3.2023   18.3935   73.1041 LP  0  0  0  0  0  0  0  0  0  0  0  0  # atno 4785 bound_to 346 
   -3.1803   16.8566   72.5524 LP  0  0  0  0  0  0  0  0  0  0  0  0  # atno 4786 bound_to 346 
   -3.1542   20.4569   75.1853 LP  0  0  0  0  0  0  0  0  0  0  0  0  # atno 4787 bound_to 339 
   -2.7069   21.9954   75.5010 LP  0  0  0  0  0  0  0  0  0  0  0  0  # atno 4788 bound_to 339 
   -8.5151   28.7551   65.3291 LP  0  0  0  0  0  0  0  0  0  0  0  0  # atno 4797 bound_to 154 
   -6.8979   28.5527   65.4302 LP  0  0  0  0  0  0  0  0  0  0  0  0  # atno 4798 bound_to 154 

> <Gold.Score>
     Score     S(PLP)   S(hbond)     S(cho)   S(metal)  DE(clash)   DE(tors)     intcor
     33.06     -30.07       1.00       0.00       0.00       0.00       1.05       2.11

> <Gold.PLP.Fitness>
33.0648

> <Gold.PLP.PLP>
-30.0656

> <Gold.PLP.part.hbond>
-1.0000

> <Gold.PLP.part.metal>
0.0000

> <Gold.PLP.part.buried>
-3.3730

> <Gold.PLP.part.nonpolar>
-26.2056

> <Gold.PLP.part.repulsive>
0.0702

> <Gold.PLP.ligand.clash>
0.0000

> <Gold.PLP.ligand.torsion>
1.0539

> <Gold.PLP.Chemscore.Hbond>
1.0000

> <Gold.PLP.Chemscore.CHOScore>
0.0000

> <Gold.PLP.Chemscore.Metal>
0.0000

> <Gold.Chemscore.Hbonds>
donor molecule, donor type, donor heavy atom, donor atom, acceptor molecule, acceptor atom, score
      L1  H     7    15       P1  1266  1.00

> <Gold.PLP.Chemscore.Internal.Correction>
2.1069

#       Name:                unknown
#       Creating user name   williammccorkindale
#       Creation time:       Tue Jun  7 14:55:40 2022


#       File generated by GOLD software.
#

@<TRIPOS>MOLECULE
unknown|prepared_Mpro-x0946|mol2|1|dock2
    18    18     1
SMALL
NO_CHARGES


@<TRIPOS>ATOM
      1 Br1        -13.4975  16.1993  73.2977 Br             1 RES1               0.0000
      2 C2         -13.0361  14.6489  72.2960 C.ar           1 RES1               0.0000
      3 C3         -13.5553  13.3920  72.5844 C.ar           1 RES1               0.0000
      4 C4         -13.1911  12.2918  71.8282 C.ar           1 RES1               0.0000
      5 C5         -12.3094  12.4000  70.7722 C.ar           1 RES1               0.0000
      6 S6         -11.8676  10.9902  69.8340 S.o2           1 RES1               0.0000
      7 N7         -10.1308  10.8890  69.8200 N.3            1 RES1               0.0000
      8 O8         -12.3986   9.7412  70.4183 O.2            1 RES1               0.0000
      9 O9         -12.3015  11.2295  68.4281 O.2            1 RES1               0.0000
     10 C10        -11.7920  13.6466  70.4831 C.ar           1 RES1               0.0000
     11 C11        -12.1533  14.7670  71.2414 C.ar           1 RES1               0.0000
     12 H12        -14.2439  13.3180  73.4120 H              1 RES1               0.0000
     13 H13        -13.6032  11.3091  72.0612 H              1 RES1               0.0000
     14 H14         -9.8505  10.9846  68.8044 H              1 RES1               0.0000
     15 H15         -9.8476   9.9407  70.1296 H              1 RES1               0.0000
     16 H16        -11.1053  13.7090  69.6546 H              1 RES1               0.0000
     17 H17        -11.7370  15.7324  70.9983 H              1 RES1               0.0000
     18 ****        -9.7150  11.5808  70.4103 LP             1 RES1               0.0000
@<TRIPOS>BOND
    1    1    2 1     
    2    2    3 ar    
    3    3    4 ar    
    4    4    5 ar    
    5    5    6 1     
    6    6    7 1     
    7    6    8 2     
    8    6    9 2     
    9    5   10 ar    
   10   10   11 ar    
   11   11    2 ar    
   12    3   12 1     
   13    4   13 1     
   14    7   14 1     
   15    7   15 1     
   16   10   16 1     
   17   11   17 1     
   18    7   18 1     
@<TRIPOS>SUBSTRUCTURE
      1 RES1           1
@<TRIPOS>SET
LONE_PAIRS      STATIC     ATOMS    <user>   **** ""
3 18 8 9
DONOR_HYDROGENS      STATIC     ATOMS    <user>   **** ""
2 14 15
ATOM$BLUE        STATIC     ATOMS    COLORGROUP SYSTEM
3 18 8 9
ATOM$RED        STATIC     ATOMS    COLORGROUP SYSTEM
2 14 15
@<TRIPOS>COMMENT
> <Gold.Version>
2022.1.0

> <Gold.Id.Protein>
6LU7|6LU7_protein|mol2

> <Gold.Protein.RotatedTorsions>
[ 3973 1471 1470 1467 ] final  171.46 input   60.00 | X-H torsion
[ 3372  414  413  411 ] final  176.79 input   60.00 | X-H torsion
[ 4268 1114 1113 1110 ] final -115.27 input   59.99 | X-H torsion
[ 4409  924  923  921 ] final   65.09 input   59.99 | X-H torsion
[ 4183 1244 1243 1241 ] final  171.24 input   59.99 | X-H torsion
[ 3800  178  177  174 ] final   43.22 input   60.00 | X-H torsion
[ 3793  171  170  167 ] final   12.46 input   60.00 | X-H torsion
[ 3576  185  184  181 ] final -133.91 input   60.00 | X-H torsion
[ 3523  346  345  342 ] final  163.96 input   60.01 | X-H torsion
[ 3515  339  338  335 ] final  103.88 input   60.00 | X-H torsion
[ 3663  154  153  150 ] final -136.92 input   60.00 | X-H torsion
[ 4280 1130 1129 1126 ] final  -60.41 input   60.00 | X-H torsion

> <Gold.Protein.ActiveResidues>
 VAL20   THR21   CYS22   GLY23   THR24   THR25   THR26   LEU27   ASN28   PRO39  
 ARG40   HIS41   VAL42   CYS44   THR45   SER46   ASP48   MET49   LEU50   PRO52  
 TYR54   TYR118  ASN119  ILE136  GLY138  SER139  PHE140  LEU141  ASN142  GLY143 
 SER144  CYS145  GLY146  SER147  TYR161  HIS163  HIS164  MET165  GLU166  LEU167 
 PRO168  THR169  GLY170  VAL171  HIS172  ALA173  PHE181  PHE185  VAL186  ASP187 
 ARG188  GLN189  THR190  ALA191  GLN192  ALA193 

> <Gold.Protein.RotatedAtoms>
  -15.0728   16.9497   76.1671 H   0  0  0  0  0  0  0  0  0  0  0  0  # atno 3372 bound_to 414 
   -3.2544   22.2279   74.5908 H   0  0  0  0  0  0  0  0  0  0  0  0  # atno 3515 bound_to 339 
   -1.7913   17.5183   72.9028 H   0  0  0  0  0  0  0  0  0  0  0  0  # atno 3523 bound_to 346 
   -7.3486   25.4567   63.0472 H   0  0  0  0  0  0  0  0  0  0  0  0  # atno 3576 bound_to 185 
   -6.7221   28.9416   65.3126 H   0  0  0  0  0  0  0  0  0  0  0  0  # atno 3663 bound_to 154 
   -3.5536   24.3994   72.0955 H   0  0  0  0  0  0  0  0  0  0  0  0  # atno 3793 bound_to 171 
   -6.2475   23.8425   71.8769 H   0  0  0  0  0  0  0  0  0  0  0  0  # atno 3800 bound_to 178 
  -15.6657    8.1106   78.5523 H   0  0  0  0  0  0  0  0  0  0  0  0  # atno 3973 bound_to 1471
  -19.9465   13.4536   63.0362 H   0  0  0  0  0  0  0  0  0  0  0  0  # atno 4183 bound_to 1244
  -12.5270   15.3088   61.2373 H   0  0  0  0  0  0  0  0  0  0  0  0  # atno 4268 bound_to 1114
  -16.4120   20.1096   58.2448 H   0  0  0  0  0  0  0  0  0  0  0  0  # atno 4280 bound_to 1130
  -10.7658   14.9930   56.4091 H   0  0  0  0  0  0  0  0  0  0  0  0  # atno 4409 bound_to 924 
  -15.3530    7.4733   77.0880 LP  0  0  0  0  0  0  0  0  0  0  0  0  # atno 4696 bound_to 1471
  -15.0133    9.0421   77.3884 LP  0  0  0  0  0  0  0  0  0  0  0  0  # atno 4697 bound_to 1471
  -13.8351   17.9638   75.8710 LP  0  0  0  0  0  0  0  0  0  0  0  0  # atno 4731 bound_to 414 
  -15.1856   18.0300   74.9554 LP  0  0  0  0  0  0  0  0  0  0  0  0  # atno 4732 bound_to 414 
  -14.1096   15.6029   60.9989 LP  0  0  0  0  0  0  0  0  0  0  0  0  # atno 4733 bound_to 1114
  -13.2834   16.4357   62.1350 LP  0  0  0  0  0  0  0  0  0  0  0  0  # atno 4734 bound_to 1114
  -12.1870   15.4299   57.0703 LP  0  0  0  0  0  0  0  0  0  0  0  0  # atno 4763 bound_to 924 
  -10.9155   15.0651   58.0279 LP  0  0  0  0  0  0  0  0  0  0  0  0  # atno 4764 bound_to 924 
  -20.9866   12.3786   63.6770 LP  0  0  0  0  0  0  0  0  0  0  0  0  # atno 4771 bound_to 1244
  -20.4370   13.6245   64.5783 LP  0  0  0  0  0  0  0  0  0  0  0  0  # atno 4772 bound_to 1244
   -6.7310   22.3459   71.4589 LP  0  0  0  0  0  0  0  0  0  0  0  0  # atno 4775 bound_to 178 
   -7.6415   23.2485   72.4703 LP  0  0  0  0  0  0  0  0  0  0  0  0  # atno 4776 bound_to 178 
   -2.1121   24.7652   72.7558 LP  0  0  0  0  0  0  0  0  0  0  0  0  # atno 4779 bound_to 171 
   -2.2894   23.3976   71.8812 LP  0  0  0  0  0  0  0  0  0  0  0  0  # atno 4780 bound_to 171 
   -7.8323   26.8544   63.7257 LP  0  0  0  0  0  0  0  0  0  0  0  0  # atno 4783 bound_to 185 
   -8.7749   25.5249   63.8275 LP  0  0  0  0  0  0  0  0  0  0  0  0  # atno 4784 bound_to 185 
   -3.1187   18.4331   73.1250 LP  0  0  0  0  0  0  0  0  0  0  0  0  # atno 4785 bound_to 346 
   -3.2605   16.9061   72.5639 LP  0  0  0  0  0  0  0  0  0  0  0  0  # atno 4786 bound_to 346 
   -3.5477   20.6286   74.5267 LP  0  0  0  0  0  0  0  0  0  0  0  0  # atno 4787 bound_to 339 
   -2.6655   21.2513   75.7516 LP  0  0  0  0  0  0  0  0  0  0  0  0  # atno 4788 bound_to 339 
   -7.9548   29.9447   64.9630 LP  0  0  0  0  0  0  0  0  0  0  0  0  # atno 4797 bound_to 154 
   -8.2557   28.4134   65.4438 LP  0  0  0  0  0  0  0  0  0  0  0  0  # atno 4798 bound_to 154 

> <Gold.Score>
     Score     S(PLP)   S(hbond)     S(cho)   S(metal)  DE(clash)   DE(tors)     intcor
     33.90     -30.95       1.00       0.00       0.00       0.00       1.08       2.11

> <Gold.PLP.Fitness>
33.9007

> <Gold.PLP.PLP>
-30.9471

> <Gold.PLP.part.hbond>
-2.0000

> <Gold.PLP.part.metal>
0.0000

> <Gold.PLP.part.buried>
-2.5738

> <Gold.PLP.part.nonpolar>
-27.7845

> <Gold.PLP.part.repulsive>
0.7413

> <Gold.PLP.ligand.clash>
0.0000

> <Gold.PLP.ligand.torsion>
1.0766

> <Gold.PLP.Chemscore.Hbond>
1.0000

> <Gold.PLP.Chemscore.CHOScore>
0.0000

> <Gold.PLP.Chemscore.Metal>
0.0000

> <Gold.Chemscore.Hbonds>
donor molecule, donor type, donor heavy atom, donor atom, acceptor molecule, acceptor atom, score
      P1  H  1281  4132       L1     9  1.00

> <Gold.PLP.Chemscore.Internal.Correction>
2.1069

#       Name:                unknown
#       Creating user name   williammccorkindale
#       Creation time:       Tue Jun  7 14:55:41 2022


#       File generated by GOLD software.
#

@<TRIPOS>MOLECULE
unknown|prepared_Mpro-x0967|mol2|1|dock1
    41    41     1
SMALL
NO_CHARGES


@<TRIPOS>ATOM
      1 C1         -12.3448  14.6076  72.9313 C.3            1 RES1               0.0000
      2 C2         -12.1634  15.1042  71.5317 C.2            1 RES1               0.0000
      3 O3         -12.9992  15.8973  71.0366 O.2            1 RES1               0.0000
      4 N4         -11.0512  14.6785  70.7237 N.am           1 RES1               0.0000
      5 C5         -11.0769  15.2711  69.3527 C.3            1 RES1               0.0000
      6 C6         -11.4451  13.9340  68.6140 C.3            1 RES1               0.0000
      7 C7         -11.7289  14.0289  67.2520 C.ar           1 RES1               0.0000
      8 C8         -11.7616  14.9867  66.2731 C.ar           1 RES1               0.0000
      9 C9         -11.9580  14.9970  65.0287 C.ar           1 RES1               0.0000
     10 C10        -12.2459  13.6634  64.3387 C.ar           1 RES1               0.0000
     11 C11        -12.2416  12.6721  65.2549 C.ar           1 RES1               0.0000
     12 C12        -12.0405  12.6895  66.5682 C.ar           1 RES1               0.0000
     13 O13        -12.3413  13.6666  63.0140 O.3            1 RES1               0.0000
     14 C14         -9.6729  15.6556  69.0367 C.2            1 RES1               0.0000
     15 O15         -9.1737  16.4289  68.2112 O.2            1 RES1               0.0000
     16 N16         -8.7024  14.9513  69.8757 N.am           1 RES1               0.0000
     17 C17         -7.5393  15.2049  69.7295 C.3            1 RES1               0.0000
     18 C18         -6.2977  14.7145  70.8912 C.1            1 RES1               0.0000
     19 C19         -5.1480  14.2453  71.9808 C.1            1 RES1               0.0000
     20 Br20        -3.8865  13.7520  73.1668 Br             1 RES1               0.0000
     21 H21        -12.4640  13.5174  72.8904 H              1 RES1               0.0000
     22 H22        -11.4810  14.8705  73.5710 H              1 RES1               0.0000
     23 H23        -13.2886  15.0601  73.3489 H              1 RES1               0.0000
     24 H24        -10.3618  14.0506  70.9969 H              1 RES1               0.0000
     25 H25        -11.7676  16.0426  69.1706 H              1 RES1               0.0000
     26 H26        -12.0921  13.3559  69.2310 H              1 RES1               0.0000
     27 H27        -10.4007  13.3627  68.7921 H              1 RES1               0.0000
     28 H28        -11.7712  16.0211  66.7396 H              1 RES1               0.0000
     29 H29        -11.9524  15.7693  64.2555 H              1 RES1               0.0000
     30 H30        -12.4957  11.6441  64.8074 H              1 RES1               0.0000
     31 H31        -12.0539  11.9042  67.3029 H              1 RES1               0.0000
     32 H32        -12.6034  14.3951  62.4078 H              1 RES1               0.0000
     33 H33         -9.0259  14.3087  70.6136 H              1 RES1               0.0000
     34 H34         -6.7633  14.6814  68.9445 H              1 RES1               0.0000
     35 H35         -6.9226  16.2502  69.6896 H              1 RES1               0.0000
     36 ****       -13.7854  16.1968  71.5771 LP             1 RES1               0.0000
     37 ****       -12.8795  16.2302  70.1013 LP             1 RES1               0.0000
     38 ****       -12.9897  12.9326  62.8119 LP             1 RES1               0.0000
     39 ****       -11.4294  13.4015  62.7007 LP             1 RES1               0.0000
     40 ****        -9.7628  16.9426  67.5875 LP             1 RES1               0.0000
     41 ****        -8.1809  16.5406  68.1673 LP             1 RES1               0.0000
@<TRIPOS>BOND
    1    1    2 1     
    2    2    3 2     
    3    2    4 am    
    4    4    5 1     
    5    5    6 1     
    6    6    7 1     
    7    7    8 ar    
    8    8    9 ar    
    9    9   10 ar    
   10   10   11 ar    
   11   11   12 ar    
   12   10   13 1     
   13    5   14 1     
   14   14   15 2     
   15   14   16 am    
   16   16   17 1     
   17   17   18 1     
   18   18   19 3     
   19   19   20 1     
   20   12    7 ar    
   21    1   21 1     
   22    1   22 1     
   23    1   23 1     
   24    4   24 1     
   25    5   25 1     
   26    6   26 1     
   27    6   27 1     
   28    8   28 1     
   29    9   29 1     
   30   11   30 1     
   31   12   31 1     
   32   13   32 1     
   33   16   33 1     
   34   17   34 1     
   35   17   35 1     
   36    3   36 1     
   37    3   37 1     
   38   13   38 1     
   39   13   39 1     
   40   15   40 1     
   41   15   41 1     
@<TRIPOS>SUBSTRUCTURE
      1 RES1           1
@<TRIPOS>SET
LONE_PAIRS      STATIC     ATOMS    <user>   **** ""
6 36 37 38 39 40 41
DONOR_HYDROGENS      STATIC     ATOMS    <user>   **** ""
3 24 32 33
ATOM$BLUE        STATIC     ATOMS    COLORGROUP SYSTEM
6 36 37 38 39 40 41
ATOM$RED        STATIC     ATOMS    COLORGROUP SYSTEM
3 24 32 33
@<TRIPOS>COMMENT
> <Gold.Version>
2022.1.0

> <Gold.Id.Protein>
6LU7|6LU7_protein|mol2

> <Gold.Protein.RotatedTorsions>
[ 3973 1471 1470 1467 ] final   91.76 input   60.00 | X-H torsion
[ 3372  414  413  411 ] final -153.44 input   60.00 | X-H torsion
[ 4268 1114 1113 1110 ] final   69.86 input   59.99 | X-H torsion
[ 4409  924  923  921 ] final  153.12 input   59.99 | X-H torsion
[ 4183 1244 1243 1241 ] final  123.99 input   59.99 | X-H torsion
[ 3800  178  177  174 ] final -147.68 input   60.00 | X-H torsion
[ 3793  171  170  167 ] final  149.01 input   60.00 | X-H torsion
[ 3576  185  184  181 ] final -126.42 input   60.00 | X-H torsion
[ 3523  346  345  342 ] final  133.79 input   60.01 | X-H torsion
[ 3515  339  338  335 ] final -120.23 input   60.00 | X-H torsion
[ 3663  154  153  150 ] final  109.28 input   60.00 | X-H torsion
[ 4280 1130 1129 1126 ] final   73.15 input   60.00 | X-H torsion

> <Gold.Protein.ActiveResidues>
 VAL20   THR21   CYS22   GLY23   THR24   THR25   THR26   LEU27   ASN28   PRO39  
 ARG40   HIS41   VAL42   CYS44   THR45   SER46   ASP48   MET49   LEU50   PRO52  
 TYR54   TYR118  ASN119  ILE136  GLY138  SER139  PHE140  LEU141  ASN142  GLY143 
 SER144  CYS145  GLY146  SER147  TYR161  HIS163  HIS164  MET165  GLU166  LEU167 
 PRO168  THR169  GLY170  VAL171  HIS172  ALA173  PHE181  PHE185  VAL186  ASP187 
 ARG188  GLN189  THR190  ALA191  GLN192  ALA193 

> <Gold.Protein.RotatedAtoms>
  -15.4080   17.0606   75.8404 H   0  0  0  0  0  0  0  0  0  0  0  0  # atno 3372 bound_to 414 
   -2.7357   21.0052   75.7076 H   0  0  0  0  0  0  0  0  0  0  0  0  # atno 3515 bound_to 339 
   -1.8764   17.9718   73.0593 H   0  0  0  0  0  0  0  0  0  0  0  0  # atno 3523 bound_to 346 
   -7.4245   25.3616   63.0590 H   0  0  0  0  0  0  0  0  0  0  0  0  # atno 3576 bound_to 185 
   -7.8556   29.9671   64.9604 H   0  0  0  0  0  0  0  0  0  0  0  0  # atno 3663 bound_to 154 
   -2.0699   23.4965   72.0045 H   0  0  0  0  0  0  0  0  0  0  0  0  # atno 3793 bound_to 171 
   -7.5852   22.5637   72.0998 H   0  0  0  0  0  0  0  0  0  0  0  0  # atno 3800 bound_to 178 
  -15.5926    7.3058   77.6655 H   0  0  0  0  0  0  0  0  0  0  0  0  # atno 3973 bound_to 1471
  -20.3418   12.8328   62.8898 H   0  0  0  0  0  0  0  0  0  0  0  0  # atno 4183 bound_to 1244
  -14.1211   16.2115   61.6146 H   0  0  0  0  0  0  0  0  0  0  0  0  # atno 4268 bound_to 1114
  -15.5787   19.5672   59.6492 H   0  0  0  0  0  0  0  0  0  0  0  0  # atno 4280 bound_to 1130
  -10.5414   14.9488   57.6898 H   0  0  0  0  0  0  0  0  0  0  0  0  # atno 4409 bound_to 924 
  -14.9737    8.6063   76.9083 LP  0  0  0  0  0  0  0  0  0  0  0  0  # atno 4696 bound_to 1471
  -15.4662    8.7196   78.4611 LP  0  0  0  0  0  0  0  0  0  0  0  0  # atno 4697 bound_to 1471
  -13.9172   17.6102   76.1918 LP  0  0  0  0  0  0  0  0  0  0  0  0  # atno 4731 bound_to 414 
  -14.7659   18.2719   74.9636 LP  0  0  0  0  0  0  0  0  0  0  0  0  # atno 4732 bound_to 414 
  -12.5429   16.0164   61.9597 LP  0  0  0  0  0  0  0  0  0  0  0  0  # atno 4733 bound_to 1114
  -13.2445   15.1131   60.7942 LP  0  0  0  0  0  0  0  0  0  0  0  0  # atno 4734 bound_to 1114
  -11.2312   15.1272   56.2269 LP  0  0  0  0  0  0  0  0  0  0  0  0  # atno 4763 bound_to 924 
  -12.0975   15.4123   57.5814 LP  0  0  0  0  0  0  0  0  0  0  0  0  # atno 4764 bound_to 924 
  -21.0261   12.6993   64.3601 LP  0  0  0  0  0  0  0  0  0  0  0  0  # atno 4771 bound_to 1244
  -19.9995   13.9290   64.0427 LP  0  0  0  0  0  0  0  0  0  0  0  0  # atno 4772 bound_to 1244
   -6.8566   23.9989   72.3395 LP  0  0  0  0  0  0  0  0  0  0  0  0  # atno 4775 bound_to 178 
   -6.1688   22.8834   71.3652 LP  0  0  0  0  0  0  0  0  0  0  0  0  # atno 4776 bound_to 178 
   -3.5522   24.1661   71.9587 LP  0  0  0  0  0  0  0  0  0  0  0  0  # atno 4779 bound_to 171 
   -2.3436   24.9061   72.7700 LP  0  0  0  0  0  0  0  0  0  0  0  0  # atno 4780 bound_to 171 
   -7.7260   26.8413   63.6650 LP  0  0  0  0  0  0  0  0  0  0  0  0  # atno 4783 bound_to 185 
   -8.8049   25.6339   63.8764 LP  0  0  0  0  0  0  0  0  0  0  0  0  # atno 4784 bound_to 185 
   -3.4930   18.1452   72.9918 LP  0  0  0  0  0  0  0  0  0  0  0  0  # atno 4785 bound_to 346 
   -2.8004   16.7373   72.5394 LP  0  0  0  0  0  0  0  0  0  0  0  0  # atno 4786 bound_to 346 
   -3.1100   22.2991   74.7945 LP  0  0  0  0  0  0  0  0  0  0  0  0  # atno 4787 bound_to 339 
   -3.6256   20.8121   74.3590 LP  0  0  0  0  0  0  0  0  0  0  0  0  # atno 4788 bound_to 339 
   -8.3293   28.4800   65.4209 LP  0  0  0  0  0  0  0  0  0  0  0  0  # atno 4797 bound_to 154 
   -6.7397   28.8453   65.3406 LP  0  0  0  0  0  0  0  0  0  0  0  0  # atno 4798 bound_to 154 

> <Gold.Score>
     Score     S(PLP)   S(hbond)     S(cho)   S(metal)  DE(clash)   DE(tors)     intcor
     51.28     -43.50       3.00       0.00       0.00       0.00       0.95       0.68

> <Gold.PLP.Fitness>
51.2811

> <Gold.PLP.PLP>
-43.5050

> <Gold.PLP.part.hbond>
-4.7445

> <Gold.PLP.part.metal>
0.0000

> <Gold.PLP.part.buried>
-8.1010

> <Gold.PLP.part.nonpolar>
-32.0493

> <Gold.PLP.part.repulsive>
0.1665

> <Gold.PLP.ligand.clash>
0.0000

> <Gold.PLP.ligand.torsion>
0.9530

> <Gold.PLP.Chemscore.Hbond>
3.0000

> <Gold.PLP.Chemscore.CHOScore>
0.0000

> <Gold.PLP.Chemscore.Metal>
0.0000

> <Gold.Chemscore.Hbonds>
donor molecule, donor type, donor heavy atom, donor atom, acceptor molecule, acceptor atom, score
      L1  H     4    24       P1  1464  1.00
      L1  H    13    32       P1  1114  1.00
      L1  H    16    33       P1  1464  1.00

> <Gold.PLP.Chemscore.Internal.Correction>
0.6821

#       Name:                unknown
#       Creating user name   williammccorkindale
#       Creation time:       Tue Jun  7 14:55:41 2022


#       File generated by GOLD software.
#

@<TRIPOS>MOLECULE
unknown|prepared_Mpro-x0967|mol2|1|dock2
    41    41     1
SMALL
NO_CHARGES


@<TRIPOS>ATOM
      1 C1         -15.5046   7.7199  71.7821 C.3            1 RES1               0.0000
      2 C2         -14.1523   8.2864  72.0799 C.2            1 RES1               0.0000
      3 O3         -13.7726   8.4055  73.2692 O.2            1 RES1               0.0000
      4 N4         -13.2720   8.7181  71.0265 N.am           1 RES1               0.0000
      5 C5         -11.9868   9.2762  71.5442 C.3            1 RES1               0.0000
      6 C6         -11.5019   9.8513  70.1647 C.3            1 RES1               0.0000
      7 C7         -11.7136  11.2119  69.9444 C.ar           1 RES1               0.0000
      8 C8         -11.6039  12.1170  68.9219 C.ar           1 RES1               0.0000
      9 C9         -11.8832  13.3351  68.7629 C.ar           1 RES1               0.0000
     10 C10        -12.4969  14.0885  69.9432 C.ar           1 RES1               0.0000
     11 C11        -12.6210  13.2525  70.9957 C.ar           1 RES1               0.0000
     12 C12        -12.3083  11.9693  71.1408 C.ar           1 RES1               0.0000
     13 O13        -12.8907  15.3395  69.7339 O.3            1 RES1               0.0000
     14 C14        -11.1481   8.1070  71.9298 C.2            1 RES1               0.0000
     15 O15        -11.2594   6.8896  71.7455 O.2            1 RES1               0.0000
     16 N16         -9.9645   8.5013  72.6949 N.am           1 RES1               0.0000
     17 C17         -9.1987   7.6429  73.0341 C.3            1 RES1               0.0000
     18 C18         -9.4139   6.6957  74.5133 C.1            1 RES1               0.0000
     19 C19         -9.6274   5.8046  75.8879 C.1            1 RES1               0.0000
     20 Br20        -9.8489   4.8467  77.3960 Br             1 RES1               0.0000
     21 H21        -16.0883   8.4920  71.2648 H              1 RES1               0.0000
     22 H22        -15.4355   6.8122  71.1528 H              1 RES1               0.0000
     23 H23        -16.0106   7.4767  72.7592 H              1 RES1               0.0000
     24 H24        -13.4739   8.6947  70.0763 H              1 RES1               0.0000
     25 H25        -12.0441  10.0093  72.2957 H              1 RES1               0.0000
     26 H26        -11.7480   9.1645  69.3893 H              1 RES1               0.0000
     27 H27        -10.3286   9.6200  70.3009 H              1 RES1               0.0000
     28 H28        -10.9621  11.6892  68.0895 H              1 RES1               0.0000
     29 H29        -11.8151  14.0372  67.9281 H              1 RES1               0.0000
     30 H30        -13.0376  13.7690  71.9344 H              1 RES1               0.0000
     31 H31        -12.3897  11.3056  71.9832 H              1 RES1               0.0000
     32 H32        -13.7516  15.6763  69.3989 H              1 RES1               0.0000
     33 H33         -9.7709   9.4979  72.8723 H              1 RES1               0.0000
     34 H34         -9.0763   6.5292  72.5471 H              1 RES1               0.0000
     35 H35         -8.0283   7.6636  73.3574 H              1 RES1               0.0000
     36 ****       -14.3734   8.1221  74.0167 LP             1 RES1               0.0000
     37 ****       -12.8691   8.7840  73.4701 LP             1 RES1               0.0000
     38 ****       -12.2164  15.7061  69.0928 LP             1 RES1               0.0000
     39 ****       -12.7814  15.7842  70.6230 LP             1 RES1               0.0000
     40 ****       -12.0456   6.5298  71.2430 LP             1 RES1               0.0000
     41 ****       -10.5634   6.2647  72.0990 LP             1 RES1               0.0000
@<TRIPOS>BOND
    1    1    2 1     
    2    2    3 2     
    3    2    4 am    
    4    4    5 1     
    5    5    6 1     
    6    6    7 1     
    7    7    8 ar    
    8    8    9 ar    
    9    9   10 ar    
   10   10   11 ar    
   11   11   12 ar    
   12   10   13 1     
   13    5   14 1     
   14   14   15 2     
   15   14   16 am    
   16   16   17 1     
   17   17   18 1     
   18   18   19 3     
   19   19   20 1     
   20   12    7 ar    
   21    1   21 1     
   22    1   22 1     
   23    1   23 1     
   24    4   24 1     
   25    5   25 1     
   26    6   26 1     
   27    6   27 1     
   28    8   28 1     
   29    9   29 1     
   30   11   30 1     
   31   12   31 1     
   32   13   32 1     
   33   16   33 1     
   34   17   34 1     
   35   17   35 1     
   36    3   36 1     
   37    3   37 1     
   38   13   38 1     
   39   13   39 1     
   40   15   40 1     
   41   15   41 1     
@<TRIPOS>SUBSTRUCTURE
      1 RES1           1
@<TRIPOS>SET
LONE_PAIRS      STATIC     ATOMS    <user>   **** ""
6 36 37 38 39 40 41
DONOR_HYDROGENS      STATIC     ATOMS    <user>   **** ""
3 24 32 33
ATOM$BLUE        STATIC     ATOMS    COLORGROUP SYSTEM
6 36 37 38 39 40 41
ATOM$RED        STATIC     ATOMS    COLORGROUP SYSTEM
3 24 32 33
@<TRIPOS>COMMENT
> <Gold.Version>
2022.1.0

> <Gold.Id.Protein>
6LU7|6LU7_protein|mol2

> <Gold.Protein.RotatedTorsions>
[ 3973 1471 1470 1467 ] final  -82.43 input   60.00 | X-H torsion
[ 3372  414  413  411 ] final -161.77 input   60.00 | X-H torsion
[ 4268 1114 1113 1110 ] final -172.61 input   59.99 | X-H torsion
[ 4409  924  923  921 ] final -148.79 input   59.99 | X-H torsion
[ 4183 1244 1243 1241 ] final  152.15 input   59.99 | X-H torsion
[ 3800  178  177  174 ] final    6.41 input   60.00 | X-H torsion
[ 3793  171  170  167 ] final   25.90 input   60.00 | X-H torsion
[ 3576  185  184  181 ] final   77.18 input   60.00 | X-H torsion
[ 3523  346  345  342 ] final -120.80 input   60.01 | X-H torsion
[ 3515  339  338  335 ] final   32.69 input   60.00 | X-H torsion
[ 3663  154  153  150 ] final -107.74 input   60.00 | X-H torsion
[ 4280 1130 1129 1126 ] final   52.80 input   60.00 | X-H torsion

> <Gold.Protein.ActiveResidues>
 VAL20   THR21   CYS22   GLY23   THR24   THR25   THR26   LEU27   ASN28   PRO39  
 ARG40   HIS41   VAL42   CYS44   THR45   SER46   ASP48   MET49   LEU50   PRO52  
 TYR54   TYR118  ASN119  ILE136  GLY138  SER139  PHE140  LEU141  ASN142  GLY143 
 SER144  CYS145  GLY146  SER147  TYR161  HIS163  HIS164  MET165  GLU166  LEU167 
 PRO168  THR169  GLY170  VAL171  HIS172  ALA173  PHE181  PHE185  VAL186  ASP187 
 ARG188  GLN189  THR190  ALA191  GLN192  ALA193 

> <Gold.Protein.RotatedAtoms>
  -15.3300   17.0119   75.9406 H   0  0  0  0  0  0  0  0  0  0  0  0  # atno 3372 bound_to 414 
   -3.6675   21.3097   74.1737 H   0  0  0  0  0  0  0  0  0  0  0  0  # atno 3515 bound_to 339 
   -2.5631   16.7464   72.5639 H   0  0  0  0  0  0  0  0  0  0  0  0  # atno 3523 bound_to 346 
   -8.2473   26.7545   63.9201 H   0  0  0  0  0  0  0  0  0  0  0  0  # atno 3576 bound_to 185 
   -6.9230   28.5336   65.4380 H   0  0  0  0  0  0  0  0  0  0  0  0  # atno 3663 bound_to 154 
   -3.5526   24.2114   71.9830 H   0  0  0  0  0  0  0  0  0  0  0  0  # atno 3793 bound_to 171 
   -6.0593   23.3939   71.5408 H   0  0  0  0  0  0  0  0  0  0  0  0  # atno 3800 bound_to 178 
  -15.0668    9.0991   77.6019 H   0  0  0  0  0  0  0  0  0  0  0  0  # atno 3973 bound_to 1471
  -20.0777   13.2034   62.9071 H   0  0  0  0  0  0  0  0  0  0  0  0  # atno 4183 bound_to 1244
  -13.2836   15.1249   60.7894 H   0  0  0  0  0  0  0  0  0  0  0  0  # atno 4268 bound_to 1114
  -15.6812   19.8790   59.6072 H   0  0  0  0  0  0  0  0  0  0  0  0  # atno 4280 bound_to 1130
  -11.3148   15.1888   58.1027 H   0  0  0  0  0  0  0  0  0  0  0  0  # atno 4409 bound_to 924 
  -15.7077    7.8959   78.4904 LP  0  0  0  0  0  0  0  0  0  0  0  0  # atno 4696 bound_to 1471
  -15.2618    7.6240   76.9432 LP  0  0  0  0  0  0  0  0  0  0  0  0  # atno 4697 bound_to 1471
  -13.8714   17.7124   76.1130 LP  0  0  0  0  0  0  0  0  0  0  0  0  # atno 4731 bound_to 414 
  -14.8902   18.2188   74.9416 LP  0  0  0  0  0  0  0  0  0  0  0  0  # atno 4732 bound_to 414 
  -14.1093   16.2350   61.6462 LP  0  0  0  0  0  0  0  0  0  0  0  0  # atno 4733 bound_to 1114
  -12.5217   15.9888   61.9388 LP  0  0  0  0  0  0  0  0  0  0  0  0  # atno 4734 bound_to 1114
  -10.4933   14.9144   56.7251 LP  0  0  0  0  0  0  0  0  0  0  0  0  # atno 4763 bound_to 924 
  -12.0564   15.3833   56.6674 LP  0  0  0  0  0  0  0  0  0  0  0  0  # atno 4764 bound_to 924 
  -21.0510   12.4533   63.9738 LP  0  0  0  0  0  0  0  0  0  0  0  0  # atno 4771 bound_to 1244
  -20.2406   13.8017   64.4116 LP  0  0  0  0  0  0  0  0  0  0  0  0  # atno 4772 bound_to 1244
   -7.2432   22.2988   71.7588 LP  0  0  0  0  0  0  0  0  0  0  0  0  # atno 4775 bound_to 178 
   -7.3188   23.7474   72.5088 LP  0  0  0  0  0  0  0  0  0  0  0  0  # atno 4776 bound_to 178 
   -2.2975   24.8838   72.7707 LP  0  0  0  0  0  0  0  0  0  0  0  0  # atno 4779 bound_to 171 
   -2.1050   23.4683   71.9796 LP  0  0  0  0  0  0  0  0  0  0  0  0  # atno 4780 bound_to 171 
   -8.5404   25.1863   63.5997 LP  0  0  0  0  0  0  0  0  0  0  0  0  # atno 4783 bound_to 185 
   -7.1617   25.8861   63.0744 LP  0  0  0  0  0  0  0  0  0  0  0  0  # atno 4784 bound_to 185 
   -1.9985   18.1685   73.1180 LP  0  0  0  0  0  0  0  0  0  0  0  0  # atno 4785 bound_to 346 
   -3.6034   17.9482   72.9121 LP  0  0  0  0  0  0  0  0  0  0  0  0  # atno 4786 bound_to 346 
   -2.9608   20.5949   75.4535 LP  0  0  0  0  0  0  0  0  0  0  0  0  # atno 4787 bound_to 339 
   -2.8364   22.2097   75.2449 LP  0  0  0  0  0  0  0  0  0  0  0  0  # atno 4788 bound_to 339 
   -7.4816   29.9856   64.9607 LP  0  0  0  0  0  0  0  0  0  0  0  0  # atno 4797 bound_to 154 
   -8.5267   28.7833   65.3199 LP  0  0  0  0  0  0  0  0  0  0  0  0  # atno 4798 bound_to 154 

> <Gold.Score>
     Score     S(PLP)   S(hbond)     S(cho)   S(metal)  DE(clash)   DE(tors)     intcor
     45.80     -42.37       1.88       0.00       0.00       0.29       1.30       0.68

> <Gold.PLP.Fitness>
45.7956

> <Gold.PLP.PLP>
-42.3724

> <Gold.PLP.part.hbond>
-2.7568

> <Gold.PLP.part.metal>
0.0000

> <Gold.PLP.part.buried>
-8.3956

> <Gold.PLP.part.nonpolar>
-37.0638

> <Gold.PLP.part.repulsive>
5.2125

> <Gold.PLP.ligand.clash>
0.2900

> <Gold.PLP.ligand.torsion>
1.3044

> <Gold.PLP.Chemscore.Hbond>
1.8800

> <Gold.PLP.Chemscore.CHOScore>
0.0000

> <Gold.PLP.Chemscore.Metal>
0.0000

> <Gold.Chemscore.Hbonds>
donor molecule, donor type, donor heavy atom, donor atom, acceptor molecule, acceptor atom, score
      L1  H     4    24       P1  1284  1.00
      L1  H    13    32       P1  1266  0.88

> <Gold.PLP.Chemscore.Internal.Correction>
0.6821

#       Name:                unknown
#       Creating user name   williammccorkindale
#       Creation time:       Tue Jun  7 14:55:41 2022


#       File generated by GOLD software.
#

@<TRIPOS>MOLECULE
unknown|prepared_Mpro-x0395|mol2|1|dock2
    29    30     1
SMALL
NO_CHARGES


@<TRIPOS>ATOM
      1 C1         -12.5997  12.5517  64.9370 C.3            1 RES1               0.0000
      2 C2         -12.2276  12.9960  66.3286 C.2            1 RES1               0.0000
      3 N3         -12.2704  12.2984  67.4589 N.2            1 RES1               0.0000
      4 N4         -11.9195  12.8302  68.5456 N.2            1 RES1               0.0000
      5 C5         -11.5040  14.0922  68.5716 C.2            1 RES1               0.0000
      6 C6         -11.0435  14.9381  69.7026 C.3            1 RES1               0.0000
      7 N7         -12.0723  15.2636  70.6267 N.3            1 RES1               0.0000
      8 C8         -11.4971  15.9481  71.7661 C.3            1 RES1               0.0000
      9 C9         -12.0067  15.3927  73.0906 C.3            1 RES1               0.0000
     10 C10        -13.4939  15.3876  72.9869 C.2            1 RES1               0.0000
     11 C11        -13.9917  14.7658  71.9096 C.2            1 RES1               0.0000
     12 F12        -15.3006  14.6618  71.6512 F              1 RES1               0.0000
     13 C13        -12.9308  14.1852  71.0004 C.3            1 RES1               0.0000
     14 S14        -11.6442  14.4982  66.9031 S.3            1 RES1               0.0000
     15 H15        -11.7974  11.9636  64.4915 H              1 RES1               0.0000
     16 H16        -12.7423  13.4772  64.3479 H              1 RES1               0.0000
     17 H17        -13.5634  12.0082  65.0459 H              1 RES1               0.0000
     18 H18        -10.6036  15.8788  69.3219 H              1 RES1               0.0000
     19 H19        -10.2151  14.3961  70.2118 H              1 RES1               0.0000
     20 H20        -10.3958  15.8715  71.7233 H              1 RES1               0.0000
     21 H21        -11.8548  16.9974  71.7248 H              1 RES1               0.0000
     22 H22        -11.6321  14.3655  73.2749 H              1 RES1               0.0000
     23 H23        -11.6350  16.0641  73.8827 H              1 RES1               0.0000
     24 H24        -14.1585  15.8354  73.6975 H              1 RES1               0.0000
     25 H25        -12.4526  13.3853  71.5754 H              1 RES1               0.0000
     26 H26        -13.4440  13.7483  70.1388 H              1 RES1               0.0000
     27 ****       -12.5821  11.3483  67.4467 LP             1 RES1               0.0000
     28 ****       -11.9539  12.3002  69.3929 LP             1 RES1               0.0000
     29 ****       -12.6982  15.8792  70.1479 LP             1 RES1               0.0000
@<TRIPOS>BOND
    1    1    2 1     
    2    2    3 2     
    3    3    4 1     
    4    4    5 2     
    5    5    6 1     
    6    6    7 1     
    7    7    8 1     
    8    8    9 1     
    9    9   10 1     
   10   10   11 2     
   11   11   12 1     
   12   11   13 1     
   13    5   14 1     
   14   14    2 1     
   15   13    7 1     
   16    1   15 1     
   17    1   16 1     
   18    1   17 1     
   19    6   18 1     
   20    6   19 1     
   21    8   20 1     
   22    8   21 1     
   23    9   22 1     
   24    9   23 1     
   25   10   24 1     
   26   13   25 1     
   27   13   26 1     
   28    3   27 1     
   29    4   28 1     
   30    7   29 1     
@<TRIPOS>SUBSTRUCTURE
      1 RES1           1
@<TRIPOS>SET
LONE_PAIRS      STATIC     ATOMS    <user>   **** ""
3 27 28 29
ATOM$BLUE        STATIC     ATOMS    COLORGROUP SYSTEM
3 27 28 29
@<TRIPOS>COMMENT
> <Gold.Version>
2022.1.0

> <Gold.Id.Protein>
6LU7|6LU7_protein|mol2

> <Gold.Protein.RotatedTorsions>
[ 3973 1471 1470 1467 ] final   10.58 input   60.00 | X-H torsion
[ 3372  414  413  411 ] final  141.84 input   60.00 | X-H torsion
[ 4268 1114 1113 1110 ] final  -45.81 input   59.99 | X-H torsion
[ 4409  924  923  921 ] final  131.59 input   59.99 | X-H torsion
[ 4183 1244 1243 1241 ] final  139.23 input   59.99 | X-H torsion
[ 3800  178  177  174 ] final  -69.07 input   60.00 | X-H torsion
[ 3793  171  170  167 ] final -123.83 input   60.00 | X-H torsion
[ 3576  185  184  181 ] final   50.50 input   60.00 | X-H torsion
[ 3523  346  345  342 ] final  -99.80 input   60.01 | X-H torsion
[ 3515  339  338  335 ] final   49.44 input   60.00 | X-H torsion
[ 3663  154  153  150 ] final -107.76 input   60.00 | X-H torsion
[ 4280 1130 1129 1126 ] final  -50.67 input   60.00 | X-H torsion

> <Gold.Protein.ActiveResidues>
 VAL20   THR21   CYS22   GLY23   THR24   THR25   THR26   LEU27   ASN28   PRO39  
 ARG40   HIS41   VAL42   CYS44   THR45   SER46   ASP48   MET49   LEU50   PRO52  
 TYR54   TYR118  ASN119  ILE136  GLY138  SER139  PHE140  LEU141  ASN142  GLY143 
 SER144  CYS145  GLY146  SER147  TYR161  HIS163  HIS164  MET165  GLU166  LEU167 
 PRO168  THR169  GLY170  VAL171  HIS172  ALA173  PHE181  PHE185  VAL186  ASP187 
 ARG188  GLN189  THR190  ALA191  GLN192  ALA193 

> <Gold.Protein.RotatedAtoms>
  -14.5619   17.0537   76.3776 H   0  0  0  0  0  0  0  0  0  0  0  0  # atno 3372 bound_to 414 
   -3.6253   21.5790   74.1725 H   0  0  0  0  0  0  0  0  0  0  0  0  # atno 3515 bound_to 339 
   -2.9034   16.7590   72.5416 H   0  0  0  0  0  0  0  0  0  0  0  0  # atno 3523 bound_to 346 
   -8.5740   26.4881   64.0142 H   0  0  0  0  0  0  0  0  0  0  0  0  # atno 3576 bound_to 185 
   -6.9227   28.5339   65.4379 H   0  0  0  0  0  0  0  0  0  0  0  0  # atno 3663 bound_to 154 
   -1.9326   24.5781   72.6954 H   0  0  0  0  0  0  0  0  0  0  0  0  # atno 3793 bound_to 171 
   -6.6267   22.4056   71.4191 H   0  0  0  0  0  0  0  0  0  0  0  0  # atno 3800 bound_to 178 
  -15.1026    8.0055   76.7970 H   0  0  0  0  0  0  0  0  0  0  0  0  # atno 3973 bound_to 1471
  -20.1911   13.0293   62.8726 H   0  0  0  0  0  0  0  0  0  0  0  0  # atno 4183 bound_to 1244
  -12.5882   16.0634   61.9888 H   0  0  0  0  0  0  0  0  0  0  0  0  # atno 4268 bound_to 1114
  -16.3830   20.2151   58.3600 H   0  0  0  0  0  0  0  0  0  0  0  0  # atno 4280 bound_to 1130
  -10.4112   14.9038   57.3684 H   0  0  0  0  0  0  0  0  0  0  0  0  # atno 4409 bound_to 924 
  -15.2141    9.0796   78.0144 LP  0  0  0  0  0  0  0  0  0  0  0  0  # atno 4696 bound_to 1471
  -15.7193    7.5417   78.2297 LP  0  0  0  0  0  0  0  0  0  0  0  0  # atno 4697 bound_to 1471
  -14.0275   18.2659   75.4325 LP  0  0  0  0  0  0  0  0  0  0  0  0  # atno 4731 bound_to 414 
  -15.5076   17.6232   75.1820 LP  0  0  0  0  0  0  0  0  0  0  0  0  # atno 4732 bound_to 414 
  -13.1756   15.1065   60.8110 LP  0  0  0  0  0  0  0  0  0  0  0  0  # atno 4733 bound_to 1114
  -14.1558   16.1722   61.5660 LP  0  0  0  0  0  0  0  0  0  0  0  0  # atno 4734 bound_to 1114
  -11.5659   15.2286   56.2687 LP  0  0  0  0  0  0  0  0  0  0  0  0  # atno 4763 bound_to 924 
  -11.8939   15.3562   57.8633 LP  0  0  0  0  0  0  0  0  0  0  0  0  # atno 4764 bound_to 924 
  -21.0576   12.5484   64.1633 LP  0  0  0  0  0  0  0  0  0  0  0  0  # atno 4771 bound_to 1244
  -20.1198   13.8820   64.2568 LP  0  0  0  0  0  0  0  0  0  0  0  0  # atno 4772 bound_to 1244
   -7.6724   23.1314   72.4329 LP  0  0  0  0  0  0  0  0  0  0  0  0  # atno 4775 bound_to 178 
   -6.3182   23.9101   71.9572 LP  0  0  0  0  0  0  0  0  0  0  0  0  # atno 4776 bound_to 178 
   -2.5386   23.3701   71.7890 LP  0  0  0  0  0  0  0  0  0  0  0  0  # atno 4779 bound_to 171 
   -3.4956   24.6127   72.2439 LP  0  0  0  0  0  0  0  0  0  0  0  0  # atno 4780 bound_to 171 
   -8.1990   25.0402   63.3730 LP  0  0  0  0  0  0  0  0  0  0  0  0  # atno 4783 bound_to 185 
   -7.1740   26.3004   63.2063 LP  0  0  0  0  0  0  0  0  0  0  0  0  # atno 4784 bound_to 185 
   -1.8310   17.8822   73.0281 LP  0  0  0  0  0  0  0  0  0  0  0  0  # atno 4785 bound_to 346 
   -3.4282   18.2217   73.0244 LP  0  0  0  0  0  0  0  0  0  0  0  0  # atno 4786 bound_to 346 
   -3.1075   20.4780   75.2530 LP  0  0  0  0  0  0  0  0  0  0  0  0  # atno 4787 bound_to 339 
   -2.7321   22.0554   75.4466 LP  0  0  0  0  0  0  0  0  0  0  0  0  # atno 4788 bound_to 339 
   -7.4819   29.9856   64.9606 LP  0  0  0  0  0  0  0  0  0  0  0  0  # atno 4797 bound_to 154 
   -8.5265   28.7830   65.3200 LP  0  0  0  0  0  0  0  0  0  0  0  0  # atno 4798 bound_to 154 

> <Gold.Score>
     Score     S(PLP)   S(hbond)     S(cho)   S(metal)  DE(clash)   DE(tors)     intcor
     43.89     -42.88       0.42       0.00       0.00       0.00       0.13       0.02

> <Gold.PLP.Fitness>
43.8910

> <Gold.PLP.PLP>
-42.8763

> <Gold.PLP.part.hbond>
-1.0000

> <Gold.PLP.part.metal>
0.0000

> <Gold.PLP.part.buried>
-5.7013

> <Gold.PLP.part.nonpolar>
-37.5941

> <Gold.PLP.part.repulsive>
0.3322

> <Gold.PLP.ligand.clash>
0.0000

> <Gold.PLP.ligand.torsion>
0.1346

> <Gold.PLP.Chemscore.Hbond>
0.4212

> <Gold.PLP.Chemscore.CHOScore>
0.0000

> <Gold.PLP.Chemscore.Metal>
0.0000

> <Gold.Chemscore.Hbonds>
donor molecule, donor type, donor heavy atom, donor atom, acceptor molecule, acceptor atom, score
      P1  H  1281  4132       L1     3  0.42

> <Gold.PLP.Chemscore.Internal.Correction>
0.0204

#       Name:                unknown
#       Creating user name   williammccorkindale
#       Creation time:       Tue Jun  7 14:55:41 2022


#       File generated by GOLD software.
#

@<TRIPOS>MOLECULE
unknown|prepared_Mpro-x0395|mol2|1|dock1
    29    30     1
SMALL
NO_CHARGES


@<TRIPOS>ATOM
      1 C1          -9.6876  19.8447  67.0294 C.3            1 RES1               0.0000
      2 C2         -10.1300  18.4889  67.5177 C.2            1 RES1               0.0000
      3 N3         -10.5765  17.4588  66.8068 N.2            1 RES1               0.0000
      4 N4         -10.9068  16.3876  67.3817 N.2            1 RES1               0.0000
      5 C5         -10.8118  16.2782  68.7026 C.2            1 RES1               0.0000
      6 C6         -11.1314  15.1437  69.6068 C.3            1 RES1               0.0000
      7 N7         -12.1430  15.4412  70.5590 N.3            1 RES1               0.0000
      8 C8         -11.5675  16.1968  71.6525 C.3            1 RES1               0.0000
      9 C9         -11.9945  15.6593  73.0130 C.3            1 RES1               0.0000
     10 C10        -13.4816  15.5649  72.9672 C.2            1 RES1               0.0000
     11 C11        -13.9812  14.8785  71.9307 C.2            1 RES1               0.0000
     12 F12        -15.2903  14.6903  71.7267 F              1 RES1               0.0000
     13 C13        -12.9222  14.3288  71.0005 C.3            1 RES1               0.0000
     14 S14        -10.2041  17.8408  69.0993 S.3            1 RES1               0.0000
     15 H15         -8.6726  19.8011  66.6346 H              1 RES1               0.0000
     16 H16         -9.7055  20.5095  67.9134 H              1 RES1               0.0000
     17 H17        -10.4560  20.1601  66.2904 H              1 RES1               0.0000
     18 H18        -10.2235  14.8198  70.1493 H              1 RES1               0.0000
     19 H19        -11.4324  14.2815  68.9703 H              1 RES1               0.0000
     20 H20        -10.4659  16.1824  71.5695 H              1 RES1               0.0000
     21 H21        -11.9876  17.2217  71.5910 H              1 RES1               0.0000
     22 H22        -11.5535  14.6623  73.2159 H              1 RES1               0.0000
     23 H23        -11.6341  16.3779  73.7679 H              1 RES1               0.0000
     24 H24        -14.1448  15.9980  73.6881 H              1 RES1               0.0000
     25 H25        -12.3769  13.5782  71.5821 H              1 RES1               0.0000
     26 H26        -13.4401  13.8335  70.1741 H              1 RES1               0.0000
     27 ****       -10.6506  17.5341  65.8124 LP             1 RES1               0.0000
     28 ****       -11.2421  15.6158  66.8413 LP             1 RES1               0.0000
     29 ****       -12.8212  16.0028  70.0851 LP             1 RES1               0.0000
@<TRIPOS>BOND
    1    1    2 1     
    2    2    3 2     
    3    3    4 1     
    4    4    5 2     
    5    5    6 1     
    6    6    7 1     
    7    7    8 1     
    8    8    9 1     
    9    9   10 1     
   10   10   11 2     
   11   11   12 1     
   12   11   13 1     
   13    5   14 1     
   14   14    2 1     
   15   13    7 1     
   16    1   15 1     
   17    1   16 1     
   18    1   17 1     
   19    6   18 1     
   20    6   19 1     
   21    8   20 1     
   22    8   21 1     
   23    9   22 1     
   24    9   23 1     
   25   10   24 1     
   26   13   25 1     
   27   13   26 1     
   28    3   27 1     
   29    4   28 1     
   30    7   29 1     
@<TRIPOS>SUBSTRUCTURE
      1 RES1           1
@<TRIPOS>SET
LONE_PAIRS      STATIC     ATOMS    <user>   **** ""
3 27 28 29
ATOM$BLUE        STATIC     ATOMS    COLORGROUP SYSTEM
3 27 28 29
@<TRIPOS>COMMENT
> <Gold.Version>
2022.1.0

> <Gold.Id.Protein>
6LU7|6LU7_protein|mol2

> <Gold.Protein.RotatedTorsions>
[ 3973 1471 1470 1467 ] final   12.12 input   60.00 | X-H torsion
[ 3372  414  413  411 ] final  -96.20 input   60.00 | X-H torsion
[ 4268 1114 1113 1110 ] final  175.69 input   59.99 | X-H torsion
[ 4409  924  923  921 ] final  -65.40 input   59.99 | X-H torsion
[ 4183 1244 1243 1241 ] final   82.46 input   59.99 | X-H torsion
[ 3800  178  177  174 ] final  -14.83 input   60.00 | X-H torsion
[ 3793  171  170  167 ] final  -51.40 input   60.00 | X-H torsion
[ 3576  185  184  181 ] final  -65.40 input   60.00 | X-H torsion
[ 3523  346  345  342 ] final -158.35 input   60.01 | X-H torsion
[ 3515  339  338  335 ] final   34.53 input   60.00 | X-H torsion
[ 3663  154  153  150 ] final  -21.75 input   60.00 | X-H torsion
[ 4280 1130 1129 1126 ] final  -45.54 input   60.00 | X-H torsion

> <Gold.Protein.ActiveResidues>
 VAL20   THR21   CYS22   GLY23   THR24   THR25   THR26   LEU27   ASN28   PRO39  
 ARG40   HIS41   VAL42   CYS44   THR45   SER46   ASP48   MET49   LEU50   PRO52  
 TYR54   TYR118  ASN119  ILE136  GLY138  SER139  PHE140  LEU141  ASN142  GLY143 
 SER144  CYS145  GLY146  SER147  TYR161  HIS163  HIS164  MET165  GLU166  LEU167 
 PRO168  THR169  GLY170  VAL171  HIS172  ALA173  PHE181  PHE185  VAL186  ASP187 
 ARG188  GLN189  THR190  ALA191  GLN192  ALA193 

> <Gold.Protein.RotatedAtoms>
  -15.4920   17.6487   75.1686 H   0  0  0  0  0  0  0  0  0  0  0  0  # atno 3372 bound_to 414 
   -3.6649   21.3393   74.1703 H   0  0  0  0  0  0  0  0  0  0  0  0  # atno 3515 bound_to 339 
   -2.0351   17.0040   72.6983 H   0  0  0  0  0  0  0  0  0  0  0  0  # atno 3523 bound_to 346 
   -8.2535   25.0562   63.4097 H   0  0  0  0  0  0  0  0  0  0  0  0  # atno 3576 bound_to 185 
   -8.1895   28.3728   65.4606 H   0  0  0  0  0  0  0  0  0  0  0  0  # atno 3663 bound_to 154 
   -2.9588   24.9853   72.6279 H   0  0  0  0  0  0  0  0  0  0  0  0  # atno 3793 bound_to 171 
   -6.0989   23.0763   71.4118 H   0  0  0  0  0  0  0  0  0  0  0  0  # atno 3800 bound_to 178 
  -15.1105    7.9819   76.8007 H   0  0  0  0  0  0  0  0  0  0  0  0  # atno 3973 bound_to 1471
  -20.7609   12.4461   63.2297 H   0  0  0  0  0  0  0  0  0  0  0  0  # atno 4183 bound_to 1244
  -13.4686   15.1672   60.7692 H   0  0  0  0  0  0  0  0  0  0  0  0  # atno 4268 bound_to 1114
  -16.3629   20.2626   58.4262 H   0  0  0  0  0  0  0  0  0  0  0  0  # atno 4280 bound_to 1130
  -12.1811   15.4336   57.2421 H   0  0  0  0  0  0  0  0  0  0  0  0  # atno 4409 bound_to 924 
  -15.2046    9.0864   77.9920 LP  0  0  0  0  0  0  0  0  0  0  0  0  # atno 4696 bound_to 1471
  -15.7209    7.5586   78.2485 LP  0  0  0  0  0  0  0  0  0  0  0  0  # atno 4697 bound_to 1471
  -14.5892   17.0357   76.3757 LP  0  0  0  0  0  0  0  0  0  0  0  0  # atno 4731 bound_to 414 
  -14.0092   18.2542   75.4562 LP  0  0  0  0  0  0  0  0  0  0  0  0  # atno 4732 bound_to 414 
  -14.0033   16.3274   61.7772 LP  0  0  0  0  0  0  0  0  0  0  0  0  # atno 4733 bound_to 1114
  -12.4413   15.8538   61.8281 LP  0  0  0  0  0  0  0  0  0  0  0  0  # atno 4734 bound_to 1114
  -10.7720   15.0205   57.9434 LP  0  0  0  0  0  0  0  0  0  0  0  0  # atno 4763 bound_to 924 
  -10.9052   15.0308   56.3159 LP  0  0  0  0  0  0  0  0  0  0  0  0  # atno 4764 bound_to 924 
  -20.7525   13.2343   64.6533 LP  0  0  0  0  0  0  0  0  0  0  0  0  # atno 4771 bound_to 1244
  -19.8510   13.7835   63.4073 LP  0  0  0  0  0  0  0  0  0  0  0  0  # atno 4772 bound_to 1244
   -7.4828   22.4302   71.9735 LP  0  0  0  0  0  0  0  0  0  0  0  0  # atno 4775 bound_to 178 
   -7.0394   23.9358   72.4241 LP  0  0  0  0  0  0  0  0  0  0  0  0  # atno 4776 bound_to 178 
   -1.7564   23.9225   72.3582 LP  0  0  0  0  0  0  0  0  0  0  0  0  # atno 4779 bound_to 171 
   -3.2442   23.6501   71.7426 LP  0  0  0  0  0  0  0  0  0  0  0  0  # atno 4780 bound_to 171 
   -7.1604   26.2396   63.1807 LP  0  0  0  0  0  0  0  0  0  0  0  0  # atno 4783 bound_to 185 
   -8.5355   26.5432   64.0075 LP  0  0  0  0  0  0  0  0  0  0  0  0  # atno 4784 bound_to 185 
   -2.5147   18.4794   73.1893 LP  0  0  0  0  0  0  0  0  0  0  0  0  # atno 4785 bound_to 346 
   -3.6189   17.3778   72.7055 LP  0  0  0  0  0  0  0  0  0  0  0  0  # atno 4786 bound_to 346 
   -2.9763   20.5787   75.4333 LP  0  0  0  0  0  0  0  0  0  0  0  0  # atno 4787 bound_to 339 
   -2.8235   22.1961   75.2685 LP  0  0  0  0  0  0  0  0  0  0  0  0  # atno 4788 bound_to 339 
   -6.7042   29.0148   65.2874 LP  0  0  0  0  0  0  0  0  0  0  0  0  # atno 4797 bound_to 154 
   -8.0285   29.9161   64.9704 LP  0  0  0  0  0  0  0  0  0  0  0  0  # atno 4798 bound_to 154 

> <Gold.Score>
     Score     S(PLP)   S(hbond)     S(cho)   S(metal)  DE(clash)   DE(tors)     intcor
     41.68     -42.18       0.00       0.00       0.00       0.00       0.26       0.02

> <Gold.PLP.Fitness>
41.6757

> <Gold.PLP.PLP>
-42.1756

> <Gold.PLP.part.hbond>
0.0000

> <Gold.PLP.part.metal>
0.0000

> <Gold.PLP.part.buried>
-6.2115

> <Gold.PLP.part.nonpolar>
-37.0356

> <Gold.PLP.part.repulsive>
0.2831

> <Gold.PLP.ligand.clash>
0.0000

> <Gold.PLP.ligand.torsion>
0.2603

> <Gold.PLP.Chemscore.Hbond>
0.0000

> <Gold.PLP.Chemscore.CHOScore>
0.0000

> <Gold.PLP.Chemscore.Metal>
0.0000

> <Gold.PLP.Chemscore.Internal.Correction>
0.0207

#       Name:                unknown
#       Creating user name   williammccorkindale
#       Creation time:       Tue Jun  7 14:55:42 2022


#       File generated by GOLD software.
#

@<TRIPOS>MOLECULE
unknown|prepared_Mpro-x0387|mol2|1|dock2
    31    32     1
SMALL
NO_CHARGES


@<TRIPOS>ATOM
      1 O1          -9.7595  14.2862  66.0267 O.3            1 RES1               0.0000
      2 C2         -10.7225  15.2170  66.4105 C.3            1 RES1               0.0000
      3 C3         -10.0196  16.3433  67.1118 C.3            1 RES1               0.0000
      4 C4         -10.8142  16.9726  68.2100 C.3            1 RES1               0.0000
      5 N5         -11.5046  16.0944  69.0908 N.3            1 RES1               0.0000
      6 C6         -11.0995  16.2089  70.4568 C.3            1 RES1               0.0000
      7 C7         -12.1543  15.7836  71.4500 C.2            1 RES1               0.0000
      8 C8         -12.1527  16.0728  72.7508 C.2            1 RES1               0.0000
      9 C9         -13.1711  15.6144  73.5211 C.2            1 RES1               0.0000
     10 S10        -14.1467  14.7606  72.3868 S.3            1 RES1               0.0000
     11 C11        -13.2113  15.0278  70.9845 C.2            1 RES1               0.0000
     12 C12        -11.2222  14.7225  68.7124 C.3            1 RES1               0.0000
     13 C13        -11.7269  14.5259  67.3019 C.3            1 RES1               0.0000
     14 H14         -9.1420  14.6643  65.3227 H              1 RES1               0.0000
     15 H15        -11.2461  15.5388  65.4888 H              1 RES1               0.0000
     16 H16         -9.0402  16.0143  67.5140 H              1 RES1               0.0000
     17 H17         -9.8013  17.1188  66.3487 H              1 RES1               0.0000
     18 H18        -11.5691  17.6766  67.7477 H              1 RES1               0.0000
     19 H19        -10.1550  17.6261  68.8180 H              1 RES1               0.0000
     20 H20        -10.1901  15.6409  70.6544 H              1 RES1               0.0000
     21 H21        -10.8322  17.2934  70.6229 H              1 RES1               0.0000
     22 H22        -11.3573  16.6762  73.2356 H              1 RES1               0.0000
     23 H23        -13.3460  15.7440  74.5943 H              1 RES1               0.0000
     24 H24        -13.4253  14.6703  69.9667 H              1 RES1               0.0000
     25 H25        -10.1300  14.5244  68.6925 H              1 RES1               0.0000
     26 H26        -11.7349  13.9821  69.3457 H              1 RES1               0.0000
     27 H27        -12.7018  15.0423  67.2310 H              1 RES1               0.0000
     28 H28        -11.8238  13.4586  67.0214 H              1 RES1               0.0000
     29 ****       -10.2175  13.4775  65.6576 LP             1 RES1               0.0000
     30 ****        -9.2199  14.0271  66.8278 LP             1 RES1               0.0000
     31 ****       -12.4702  16.3431  69.0150 LP             1 RES1               0.0000
@<TRIPOS>BOND
    1    1    2 1     
    2    2    3 1     
    3    3    4 1     
    4    4    5 1     
    5    5    6 1     
    6    6    7 1     
    7    7    8 1     
    8    8    9 2     
    9    9   10 1     
   10   10   11 1     
   11    5   12 1     
   12   12   13 1     
   13   13    2 1     
   14    7   11 2     
   15    1   14 1     
   16    2   15 1     
   17    3   16 1     
   18    3   17 1     
   19    4   18 1     
   20    4   19 1     
   21    6   20 1     
   22    6   21 1     
   23    8   22 1     
   24    9   23 1     
   25   11   24 1     
   26   12   25 1     
   27   12   26 1     
   28   13   27 1     
   29   13   28 1     
   30    1   29 1     
   31    1   30 1     
   32    5   31 1     
@<TRIPOS>SUBSTRUCTURE
      1 RES1           1
@<TRIPOS>SET
LONE_PAIRS      STATIC     ATOMS    <user>   **** ""
3 29 30 31
DONOR_HYDROGENS      STATIC     ATOMS    <user>   **** ""
1 14
ATOM$BLUE        STATIC     ATOMS    COLORGROUP SYSTEM
3 29 30 31
ATOM$RED        STATIC     ATOMS    COLORGROUP SYSTEM
1 14
@<TRIPOS>COMMENT
> <Gold.Version>
2022.1.0

> <Gold.Id.Protein>
6LU7|6LU7_protein|mol2

> <Gold.Protein.RotatedTorsions>
[ 3973 1471 1470 1467 ] final -124.73 input   60.00 | X-H torsion
[ 3372  414  413  411 ] final  150.50 input   60.00 | X-H torsion
[ 4268 1114 1113 1110 ] final  -21.68 input   59.99 | X-H torsion
[ 4409  924  923  921 ] final   86.19 input   59.99 | X-H torsion
[ 4183 1244 1243 1241 ] final -133.47 input   59.99 | X-H torsion
[ 3800  178  177  174 ] final -110.48 input   60.00 | X-H torsion
[ 3793  171  170  167 ] final  -91.38 input   60.00 | X-H torsion
[ 3576  185  184  181 ] final -101.21 input   60.00 | X-H torsion
[ 3523  346  345  342 ] final    6.46 input   60.01 | X-H torsion
[ 3515  339  338  335 ] final  -73.43 input   60.00 | X-H torsion
[ 3663  154  153  150 ] final -123.39 input   60.00 | X-H torsion
[ 4280 1130 1129 1126 ] final  -39.17 input   60.00 | X-H torsion

> <Gold.Protein.ActiveResidues>
 VAL20   THR21   CYS22   GLY23   THR24   THR25   THR26   LEU27   ASN28   PRO39  
 ARG40   HIS41   VAL42   CYS44   THR45   SER46   ASP48   MET49   LEU50   PRO52  
 TYR54   TYR118  ASN119  ILE136  GLY138  SER139  PHE140  LEU141  ASN142  GLY143 
 SER144  CYS145  GLY146  SER147  TYR161  HIS163  HIS164  MET165  GLU166  LEU167 
 PRO168  THR169  GLY170  VAL171  HIS172  ALA173  PHE181  PHE185  VAL186  ASP187 
 ARG188  GLN189  THR190  ALA191  GLN192  ALA193 

> <Gold.Protein.RotatedAtoms>
  -14.6911   17.0051   76.3479 H   0  0  0  0  0  0  0  0  0  0  0  0  # atno 3372 bound_to 414 
   -3.0842   20.4993   75.2886 H   0  0  0  0  0  0  0  0  0  0  0  0  # atno 3515 bound_to 339 
   -3.5496   18.0460   72.9541 H   0  0  0  0  0  0  0  0  0  0  0  0  # atno 3523 bound_to 346 
   -7.7411   25.1222   63.1558 H   0  0  0  0  0  0  0  0  0  0  0  0  # atno 3576 bound_to 185 
   -6.7880   28.7406   65.3751 H   0  0  0  0  0  0  0  0  0  0  0  0  # atno 3663 bound_to 154 
   -2.3395   24.8994   72.7646 H   0  0  0  0  0  0  0  0  0  0  0  0  # atno 3793 bound_to 171 
   -7.2018   22.2959   71.7283 H   0  0  0  0  0  0  0  0  0  0  0  0  # atno 3800 bound_to 178 
  -15.3108    8.9720   78.2189 H   0  0  0  0  0  0  0  0  0  0  0  0  # atno 3973 bound_to 1471
  -19.9072   13.9116   63.7733 H   0  0  0  0  0  0  0  0  0  0  0  0  # atno 4183 bound_to 1244
  -12.8804   16.2885   62.1192 H   0  0  0  0  0  0  0  0  0  0  0  0  # atno 4268 bound_to 1114
  -16.3338   20.3129   58.5123 H   0  0  0  0  0  0  0  0  0  0  0  0  # atno 4280 bound_to 1130
  -10.5384   14.9291   56.6576 H   0  0  0  0  0  0  0  0  0  0  0  0  # atno 4409 bound_to 924 
  -15.6891    7.4014   78.0234 LP  0  0  0  0  0  0  0  0  0  0  0  0  # atno 4696 bound_to 1471
  -15.0346    8.2464   76.7888 LP  0  0  0  0  0  0  0  0  0  0  0  0  # atno 4697 bound_to 1471
  -13.9528   18.2089   75.5393 LP  0  0  0  0  0  0  0  0  0  0  0  0  # atno 4731 bound_to 414 
  -15.4521   17.7292   75.1051 LP  0  0  0  0  0  0  0  0  0  0  0  0  # atno 4732 bound_to 414 
  -12.8159   15.1397   60.9685 LP  0  0  0  0  0  0  0  0  0  0  0  0  # atno 4733 bound_to 1114
  -14.2211   15.9121   61.2773 LP  0  0  0  0  0  0  0  0  0  0  0  0  # atno 4734 bound_to 1114
  -12.0950   15.3962   56.7393 LP  0  0  0  0  0  0  0  0  0  0  0  0  # atno 4763 bound_to 924 
  -11.2366   15.1631   58.1087 LP  0  0  0  0  0  0  0  0  0  0  0  0  # atno 4764 bound_to 924 
  -20.5223   12.6311   62.9798 LP  0  0  0  0  0  0  0  0  0  0  0  0  # atno 4771 bound_to 1244
  -20.9409   12.9107   64.5332 LP  0  0  0  0  0  0  0  0  0  0  0  0  # atno 4772 bound_to 1244
   -7.3554   23.7122   72.5148 LP  0  0  0  0  0  0  0  0  0  0  0  0  # atno 4775 bound_to 178 
   -6.0561   23.4398   71.5640 LP  0  0  0  0  0  0  0  0  0  0  0  0  # atno 4776 bound_to 178 
   -2.0710   23.4875   72.0015 LP  0  0  0  0  0  0  0  0  0  0  0  0  # atno 4779 bound_to 171 
   -3.5533   24.1716   71.9617 LP  0  0  0  0  0  0  0  0  0  0  0  0  # atno 4780 bound_to 171 
   -7.4104   26.6881   63.4499 LP  0  0  0  0  0  0  0  0  0  0  0  0  # atno 4783 bound_to 185 
   -8.8015   26.0282   63.9939 LP  0  0  0  0  0  0  0  0  0  0  0  0  # atno 4784 bound_to 185 
   -2.6802   16.7320   72.5470 LP  0  0  0  0  0  0  0  0  0  0  0  0  # atno 4785 bound_to 346 
   -1.9283   18.0759   73.0902 LP  0  0  0  0  0  0  0  0  0  0  0  0  # atno 4786 bound_to 346 
   -2.7477   22.0864   75.4145 LP  0  0  0  0  0  0  0  0  0  0  0  0  # atno 4787 bound_to 339 
   -3.6369   21.5343   74.1611 LP  0  0  0  0  0  0  0  0  0  0  0  0  # atno 4788 bound_to 339 
   -7.7382   29.9923   64.9527 LP  0  0  0  0  0  0  0  0  0  0  0  0  # atno 4797 bound_to 154 
   -8.4060   28.5681   65.3911 LP  0  0  0  0  0  0  0  0  0  0  0  0  # atno 4798 bound_to 154 

> <Gold.Score>
     Score     S(PLP)   S(hbond)     S(cho)   S(metal)  DE(clash)   DE(tors)     intcor
     40.63     -35.84       0.00       1.93       0.00       0.00       0.50       0.01

> <Gold.PLP.Fitness>
40.6307

> <Gold.PLP.PLP>
-35.8446

> <Gold.PLP.part.hbond>
0.0000

> <Gold.PLP.part.metal>
0.0000

> <Gold.PLP.part.buried>
-5.0054

> <Gold.PLP.part.nonpolar>
-31.1693

> <Gold.PLP.part.repulsive>
0.1517

> <Gold.PLP.ligand.clash>
0.0000

> <Gold.PLP.ligand.torsion>
0.5011

> <Gold.PLP.Chemscore.Hbond>
0.0000

> <Gold.PLP.Chemscore.CHOScore>
1.9274

> <Gold.PLP.Chemscore.Metal>
0.0000

> <Gold.Chemscore.Hbonds>
donor molecule, donor type, donor heavy atom, donor atom, acceptor molecule, acceptor atom, score
      L1  C     9    23       P1  1441  0.93
      L1  C    11    24       P1  1266  1.00

> <Gold.PLP.Chemscore.Internal.Correction>
0.0061

#       Name:                unknown
#       Creating user name   williammccorkindale
#       Creation time:       Tue Jun  7 14:55:42 2022


#       File generated by GOLD software.
#

@<TRIPOS>MOLECULE
unknown|prepared_Mpro-x0387|mol2|1|dock1
    31    32     1
SMALL
NO_CHARGES


@<TRIPOS>ATOM
      1 O1          -8.9852  13.7836  66.3997 O.3            1 RES1               0.0000
      2 C2         -10.1176  14.5718  66.5931 C.3            1 RES1               0.0000
      3 C3          -9.6710  15.8855  67.1667 C.3            1 RES1               0.0000
      4 C4         -10.6448  16.5017  68.1184 C.3            1 RES1               0.0000
      5 N5         -11.2471  15.6370  69.0741 N.3            1 RES1               0.0000
      6 C6         -10.9774  15.9969  70.4308 C.3            1 RES1               0.0000
      7 C7         -12.0564  15.5856  71.4035 C.2            1 RES1               0.0000
      8 C8         -12.0489  15.8272  72.7140 C.2            1 RES1               0.0000
      9 C9         -13.0919  15.3891  73.4630 C.2            1 RES1               0.0000
     10 S10        -14.0996  14.6235  72.2943 S.3            1 RES1               0.0000
     11 C11        -13.1448  14.8974  70.9065 C.2            1 RES1               0.0000
     12 C12        -10.7103  14.2991  68.9098 C.3            1 RES1               0.0000
     13 C13        -11.0606  13.8357  67.5150 C.3            1 RES1               0.0000
     14 H14         -8.5478  13.9794  65.5107 H              1 RES1               0.0000
     15 H15        -10.6122  14.6742  65.6071 H              1 RES1               0.0000
     16 H16         -8.6857  15.7892  67.6660 H              1 RES1               0.0000
     17 H17         -9.5248  16.5820  66.3153 H              1 RES1               0.0000
     18 H18        -11.4672  16.9957  67.5193 H              1 RES1               0.0000
     19 H19        -10.1547  17.3343  68.6641 H              1 RES1               0.0000
     20 H20        -10.0280  15.5852  70.7739 H              1 RES1               0.0000
     21 H21        -10.8547  17.1194  70.4471 H              1 RES1               0.0000
     22 H22        -11.2291  16.3748  73.2237 H              1 RES1               0.0000
     23 H23        -13.2668  15.4878  74.5395 H              1 RES1               0.0000
     24 H24        -13.3693  14.5873  69.8755 H              1 RES1               0.0000
     25 H25         -9.6023  14.2958  68.9798 H              1 RES1               0.0000
     26 H26        -11.1412  13.5683  69.6115 H              1 RES1               0.0000
     27 H27        -12.0992  14.1585  67.3170 H              1 RES1               0.0000
     28 H28        -10.9552  12.7409  67.3831 H              1 RES1               0.0000
     29 ****        -9.2510  12.8200  66.4264 LP             1 RES1               0.0000
     30 ****        -8.3305  13.9693  67.1324 LP             1 RES1               0.0000
     31 ****       -12.2314  15.6996  68.9095 LP             1 RES1               0.0000
@<TRIPOS>BOND
    1    1    2 1     
    2    2    3 1     
    3    3    4 1     
    4    4    5 1     
    5    5    6 1     
    6    6    7 1     
    7    7    8 1     
    8    8    9 2     
    9    9   10 1     
   10   10   11 1     
   11    5   12 1     
   12   12   13 1     
   13   13    2 1     
   14    7   11 2     
   15    1   14 1     
   16    2   15 1     
   17    3   16 1     
   18    3   17 1     
   19    4   18 1     
   20    4   19 1     
   21    6   20 1     
   22    6   21 1     
   23    8   22 1     
   24    9   23 1     
   25   11   24 1     
   26   12   25 1     
   27   12   26 1     
   28   13   27 1     
   29   13   28 1     
   30    1   29 1     
   31    1   30 1     
   32    5   31 1     
@<TRIPOS>SUBSTRUCTURE
      1 RES1           1
@<TRIPOS>SET
LONE_PAIRS      STATIC     ATOMS    <user>   **** ""
3 29 30 31
DONOR_HYDROGENS      STATIC     ATOMS    <user>   **** ""
1 14
ATOM$BLUE        STATIC     ATOMS    COLORGROUP SYSTEM
3 29 30 31
ATOM$RED        STATIC     ATOMS    COLORGROUP SYSTEM
1 14
@<TRIPOS>COMMENT
> <Gold.Version>
2022.1.0

> <Gold.Id.Protein>
6LU7|6LU7_protein|mol2

> <Gold.Protein.RotatedTorsions>
[ 3973 1471 1470 1467 ] final   22.29 input   60.00 | X-H torsion
[ 3372  414  413  411 ] final -102.73 input   60.00 | X-H torsion
[ 4268 1114 1113 1110 ] final -123.57 input   59.99 | X-H torsion
[ 4409  924  923  921 ] final   65.03 input   59.99 | X-H torsion
[ 4183 1244 1243 1241 ] final   95.73 input   59.99 | X-H torsion
[ 3800  178  177  174 ] final  124.98 input   60.00 | X-H torsion
[ 3793  171  170  167 ] final -158.69 input   60.00 | X-H torsion
[ 3576  185  184  181 ] final  -59.88 input   60.00 | X-H torsion
[ 3523  346  345  342 ] final  -85.12 input   60.01 | X-H torsion
[ 3515  339  338  335 ] final   69.87 input   60.00 | X-H torsion
[ 3663  154  153  150 ] final -146.92 input   60.00 | X-H torsion
[ 4280 1130 1129 1126 ] final   -3.74 input   60.00 | X-H torsion

> <Gold.Protein.ActiveResidues>
 VAL20   THR21   CYS22   GLY23   THR24   THR25   THR26   LEU27   ASN28   PRO39  
 ARG40   HIS41   VAL42   CYS44   THR45   SER46   ASP48   MET49   LEU50   PRO52  
 TYR54   TYR118  ASN119  ILE136  GLY138  SER139  PHE140  LEU141  ASN142  GLY143 
 SER144  CYS145  GLY146  SER147  TYR161  HIS163  HIS164  MET165  GLU166  LEU167 
 PRO168  THR169  GLY170  VAL171  HIS172  ALA173  PHE181  PHE185  VAL186  ASP187 
 ARG188  GLN189  THR190  ALA191  GLN192  ALA193 

> <Gold.Protein.RotatedAtoms>
  -15.5247   17.5693   75.2317 H   0  0  0  0  0  0  0  0  0  0  0  0  # atno 3372 bound_to 414 
   -3.5207   21.8816   74.2605 H   0  0  0  0  0  0  0  0  0  0  0  0  # atno 3515 bound_to 339 
   -3.1294   16.8364   72.5517 H   0  0  0  0  0  0  0  0  0  0  0  0  # atno 3523 bound_to 346 
   -8.3280   25.0770   63.4559 H   0  0  0  0  0  0  0  0  0  0  0  0  # atno 3576 bound_to 185 
   -6.7061   29.0964   65.2637 H   0  0  0  0  0  0  0  0  0  0  0  0  # atno 3663 bound_to 154 
   -1.7484   24.1011   72.4651 H   0  0  0  0  0  0  0  0  0  0  0  0  # atno 3793 bound_to 171 
   -7.2997   23.7595   72.4997 H   0  0  0  0  0  0  0  0  0  0  0  0  # atno 3800 bound_to 178 
  -15.1664    7.8308   76.8405 H   0  0  0  0  0  0  0  0  0  0  0  0  # atno 3973 bound_to 1471
  -20.6341   12.5373   63.0799 H   0  0  0  0  0  0  0  0  0  0  0  0  # atno 4183 bound_to 1244
  -12.6035   15.2449   61.1456 H   0  0  0  0  0  0  0  0  0  0  0  0  # atno 4268 bound_to 1114
  -16.1035   20.3990   59.0263 H   0  0  0  0  0  0  0  0  0  0  0  0  # atno 4280 bound_to 1130
  -10.7666   14.9932   56.4086 H   0  0  0  0  0  0  0  0  0  0  0  0  # atno 4409 bound_to 924 
  -15.1446    9.1157   77.8387 LP  0  0  0  0  0  0  0  0  0  0  0  0  # atno 4696 bound_to 1471
  -15.7245    7.6815   78.3617 LP  0  0  0  0  0  0  0  0  0  0  0  0  # atno 4697 bound_to 1471
  -14.4923   17.0795   76.3903 LP  0  0  0  0  0  0  0  0  0  0  0  0  # atno 4731 bound_to 414 
  -14.0732   18.2904   75.3781 LP  0  0  0  0  0  0  0  0  0  0  0  0  # atno 4732 bound_to 414 
  -14.1646   15.6991   61.0785 LP  0  0  0  0  0  0  0  0  0  0  0  0  # atno 4733 bound_to 1114
  -13.1514   16.4039   62.1478 LP  0  0  0  0  0  0  0  0  0  0  0  0  # atno 4734 bound_to 1114
  -12.1871   15.4299   57.0713 LP  0  0  0  0  0  0  0  0  0  0  0  0  # atno 4763 bound_to 924 
  -10.9147   15.0649   58.0275 LP  0  0  0  0  0  0  0  0  0  0  0  0  # atno 4764 bound_to 924 
  -20.8652   13.0540   64.6055 LP  0  0  0  0  0  0  0  0  0  0  0  0  # atno 4771 bound_to 1244
  -19.8660   13.8719   63.6059 LP  0  0  0  0  0  0  0  0  0  0  0  0  # atno 4772 bound_to 1244
   -6.0517   23.3739   71.5292 LP  0  0  0  0  0  0  0  0  0  0  0  0  # atno 4775 bound_to 178 
   -7.2612   22.3041   71.7727 LP  0  0  0  0  0  0  0  0  0  0  0  0  # atno 4776 bound_to 178 
   -3.0766   23.5277   71.7201 LP  0  0  0  0  0  0  0  0  0  0  0  0  # atno 4779 bound_to 171 
   -3.1431   24.9355   72.5448 LP  0  0  0  0  0  0  0  0  0  0  0  0  # atno 4780 bound_to 171 
   -7.1487   26.1554   63.1490 LP  0  0  0  0  0  0  0  0  0  0  0  0  # atno 4783 bound_to 185 
   -8.4721   26.6064   63.9927 LP  0  0  0  0  0  0  0  0  0  0  0  0  # atno 4784 bound_to 185 
   -1.7834   17.6589   72.9515 LP  0  0  0  0  0  0  0  0  0  0  0  0  # atno 4785 bound_to 346 
   -3.2482   18.3671   73.0910 LP  0  0  0  0  0  0  0  0  0  0  0  0  # atno 4786 bound_to 346 
   -3.2908   20.4384   74.9762 LP  0  0  0  0  0  0  0  0  0  0  0  0  # atno 4787 bound_to 339 
   -2.6541   21.7902   75.6348 LP  0  0  0  0  0  0  0  0  0  0  0  0  # atno 4788 bound_to 339 
   -8.1044   29.8791   64.9805 LP  0  0  0  0  0  0  0  0  0  0  0  0  # atno 4797 bound_to 154 
   -8.1222   28.3231   65.4756 LP  0  0  0  0  0  0  0  0  0  0  0  0  # atno 4798 bound_to 154 

> <Gold.Score>
     Score     S(PLP)   S(hbond)     S(cho)   S(metal)  DE(clash)   DE(tors)     intcor
     41.57     -35.03       0.83       1.58       0.00       0.00       0.34       0.01

> <Gold.PLP.Fitness>
41.5684

> <Gold.PLP.PLP>
-35.0305

> <Gold.PLP.part.hbond>
-1.0000

> <Gold.PLP.part.metal>
0.0000

> <Gold.PLP.part.buried>
-4.8262

> <Gold.PLP.part.nonpolar>
-30.1888

> <Gold.PLP.part.repulsive>
0.1362

> <Gold.PLP.ligand.clash>
0.0000

> <Gold.PLP.ligand.torsion>
0.3447

> <Gold.PLP.Chemscore.Hbond>
0.8288

> <Gold.PLP.Chemscore.CHOScore>
1.5781

> <Gold.PLP.Chemscore.Metal>
0.0000

> <Gold.Chemscore.Hbonds>
donor molecule, donor type, donor heavy atom, donor atom, acceptor molecule, acceptor atom, score
      L1  H     1    14       P1  1103  0.83
      L1  C     9    23       P1  1441  0.58
      L1  C    11    24       P1  1266  1.00

> <Gold.PLP.Chemscore.Internal.Correction>
0.0066

#       Name:                unknown
#       Creating user name   williammccorkindale
#       Creation time:       Tue Jun  7 14:55:42 2022


#       File generated by GOLD software.
#

@<TRIPOS>MOLECULE
unknown|prepared_Mpro-x0540|mol2|1|dock2
    42    43     1
SMALL
NO_CHARGES


@<TRIPOS>ATOM
      1 O1         -11.5387  14.9815  68.5416 O.2            1 RES1               0.0000
      2 C2         -10.8729  14.3789  69.4064 C.2            1 RES1               0.0000
      3 N3          -9.9935  13.3504  68.9625 N.am           1 RES1               0.0000
      4 C4          -9.8804  13.0237  67.5786 C.3            1 RES1               0.0000
      5 C5         -10.5622  11.7464  67.1843 C.3            1 RES1               0.0000
      6 C6         -11.2822  12.0200  65.8908 C.ar           1 RES1               0.0000
      7 C7         -12.2123  13.0525  65.8160 C.ar           1 RES1               0.0000
      8 C8         -12.8906  13.3316  64.6478 C.ar           1 RES1               0.0000
      9 N9         -12.6074  12.5556  63.5852 N.ar           1 RES1               0.0000
     10 C10        -11.7339  11.5596  63.5933 C.ar           1 RES1               0.0000
     11 C11        -11.0512  11.2738  64.7576 C.ar           1 RES1               0.0000
     12 N12        -11.0343  14.7534  70.7558 N.am           1 RES1               0.0000
     13 C13        -11.9539  15.8211  71.1665 C.3            1 RES1               0.0000
     14 C14        -13.3518  15.2792  71.0585 C.3            1 RES1               0.0000
     15 C15        -13.5740  14.0772  71.9395 C.3            1 RES1               0.0000
     16 C16        -12.9691  14.2050  73.2969 C.3            1 RES1               0.0000
     17 C17        -12.6764  15.6566  73.5657 C.3            1 RES1               0.0000
     18 C18        -11.7101  16.2492  72.5788 C.3            1 RES1               0.0000
     19 H19         -9.4478  12.8617  69.7074 H              1 RES1               0.0000
     20 H20         -8.8029  12.9096  67.3386 H              1 RES1               0.0000
     21 H21        -10.2487  13.8416  66.9065 H              1 RES1               0.0000
     22 H22         -9.8119  10.9458  67.0402 H              1 RES1               0.0000
     23 H23        -11.3593  11.4379  67.8926 H              1 RES1               0.0000
     24 H24        -12.4197  13.6634  66.6946 H              1 RES1               0.0000
     25 H25        -13.6169  14.1461  64.6088 H              1 RES1               0.0000
     26 H26        -11.5133  10.9379  62.7252 H              1 RES1               0.0000
     27 H27        -10.3211  10.4648  64.8200 H              1 RES1               0.0000
     28 H28        -10.4840  14.2563  71.4787 H              1 RES1               0.0000
     29 H29        -11.8724  16.6729  70.4644 H              1 RES1               0.0000
     30 H30        -13.5803  14.9795  70.0234 H              1 RES1               0.0000
     31 H31        -14.0548  16.0688  71.4109 H              1 RES1               0.0000
     32 H32        -13.2775  13.1329  71.4080 H              1 RES1               0.0000
     33 H33        -14.6900  13.9843  72.0618 H              1 RES1               0.0000
     34 H34        -13.6853  13.8710  74.0829 H              1 RES1               0.0000
     35 H35        -12.0648  13.5553  73.4374 H              1 RES1               0.0000
     36 H36        -13.6275  16.1939  73.5869 H              1 RES1               0.0000
     37 H37        -12.1926  15.7171  74.5699 H              1 RES1               0.0000
     38 H38        -10.6453  16.0744  72.8542 H              1 RES1               0.0000
     39 H39        -11.8420  17.3697  72.6094 H              1 RES1               0.0000
     40 ****       -11.4438  14.7362  67.5769 LP             1 RES1               0.0000
     41 ****       -12.1675  15.7102  68.8127 LP             1 RES1               0.0000
     42 ****       -13.0901  12.7440  62.7299 LP             1 RES1               0.0000
@<TRIPOS>BOND
    1    1    2 2     
    2    2    3 am    
    3    3    4 1     
    4    4    5 1     
    5    5    6 1     
    6    6    7 ar    
    7    7    8 ar    
    8    8    9 ar    
    9    9   10 ar    
   10   10   11 ar    
   11    2   12 am    
   12   12   13 1     
   13   13   14 1     
   14   14   15 1     
   15   15   16 1     
   16   16   17 1     
   17   17   18 1     
   18    6   11 ar    
   19   18   13 1     
   20    3   19 1     
   21    4   20 1     
   22    4   21 1     
   23    5   22 1     
   24    5   23 1     
   25    7   24 1     
   26    8   25 1     
   27   10   26 1     
   28   11   27 1     
   29   12   28 1     
   30   13   29 1     
   31   14   30 1     
   32   14   31 1     
   33   15   32 1     
   34   15   33 1     
   35   16   34 1     
   36   16   35 1     
   37   17   36 1     
   38   17   37 1     
   39   18   38 1     
   40   18   39 1     
   41    1   40 1     
   42    1   41 1     
   43    9   42 1     
@<TRIPOS>SUBSTRUCTURE
      1 RES1           1
@<TRIPOS>SET
LONE_PAIRS      STATIC     ATOMS    <user>   **** ""
3 40 41 42
DONOR_HYDROGENS      STATIC     ATOMS    <user>   **** ""
2 19 28
ATOM$BLUE        STATIC     ATOMS    COLORGROUP SYSTEM
3 40 41 42
ATOM$RED        STATIC     ATOMS    COLORGROUP SYSTEM
2 19 28
@<TRIPOS>COMMENT
> <Gold.Version>
2022.1.0

> <Gold.Id.Protein>
6LU7|6LU7_protein|mol2

> <Gold.Protein.RotatedTorsions>
[ 3973 1471 1470 1467 ] final  -27.23 input   60.00 | X-H torsion
[ 3372  414  413  411 ] final   95.04 input   60.00 | X-H torsion
[ 4268 1114 1113 1110 ] final -108.22 input   59.99 | X-H torsion
[ 4409  924  923  921 ] final -141.27 input   59.99 | X-H torsion
[ 4183 1244 1243 1241 ] final -169.94 input   59.99 | X-H torsion
[ 3800  178  177  174 ] final -178.42 input   60.00 | X-H torsion
[ 3793  171  170  167 ] final   64.57 input   60.00 | X-H torsion
[ 3576  185  184  181 ] final  128.53 input   60.00 | X-H torsion
[ 3523  346  345  342 ] final  151.75 input   60.01 | X-H torsion
[ 3515  339  338  335 ] final   98.76 input   60.00 | X-H torsion
[ 3663  154  153  150 ] final    0.15 input   60.00 | X-H torsion
[ 4280 1130 1129 1126 ] final  126.98 input   60.00 | X-H torsion

> <Gold.Protein.ActiveResidues>
 VAL20   THR21   CYS22   GLY23   THR24   THR25   THR26   LEU27   ASN28   PRO39  
 ARG40   HIS41   VAL42   CYS44   THR45   SER46   ASP48   MET49   LEU50   PRO52  
 TYR54   TYR118  ASN119  ILE136  GLY138  SER139  PHE140  LEU141  ASN142  GLY143 
 SER144  CYS145  GLY146  SER147  TYR161  HIS163  HIS164  MET165  GLU166  LEU167 
 PRO168  THR169  GLY170  VAL171  HIS172  ALA173  PHE181  PHE185  VAL186  ASP187 
 ARG188  GLN189  THR190  ALA191  GLN192  ALA193 

> <Gold.Protein.RotatedAtoms>
  -13.9866   17.5097   76.2580 H   0  0  0  0  0  0  0  0  0  0  0  0  # atno 3372 bound_to 414 
   -3.2991   22.1926   74.5296 H   0  0  0  0  0  0  0  0  0  0  0  0  # atno 3515 bound_to 339 
   -1.7952   17.7058   72.9699 H   0  0  0  0  0  0  0  0  0  0  0  0  # atno 3523 bound_to 346 
   -7.5308   26.7635   63.5398 H   0  0  0  0  0  0  0  0  0  0  0  0  # atno 3576 bound_to 185 
   -8.4331   28.6180   65.3770 H   0  0  0  0  0  0  0  0  0  0  0  0  # atno 3663 bound_to 154 
   -3.2865   23.6993   71.7566 H   0  0  0  0  0  0  0  0  0  0  0  0  # atno 3793 bound_to 171 
   -7.6867   22.9725   72.3620 H   0  0  0  0  0  0  0  0  0  0  0  0  # atno 3800 bound_to 178 
  -14.9756    8.5885   76.9065 H   0  0  0  0  0  0  0  0  0  0  0  0  # atno 3973 bound_to 1471
  -19.8722   13.6679   63.2416 H   0  0  0  0  0  0  0  0  0  0  0  0  # atno 4183 bound_to 1244
  -12.4747   15.3710   61.3189 H   0  0  0  0  0  0  0  0  0  0  0  0  # atno 4268 bound_to 1114
  -15.5614   18.8055   59.2778 H   0  0  0  0  0  0  0  0  0  0  0  0  # atno 4280 bound_to 1130
  -11.4319   15.2238   58.0903 H   0  0  0  0  0  0  0  0  0  0  0  0  # atno 4409 bound_to 924 
  -15.4598    8.7329   78.4533 LP  0  0  0  0  0  0  0  0  0  0  0  0  # atno 4696 bound_to 1471
  -15.6015    7.3013   77.6806 LP  0  0  0  0  0  0  0  0  0  0  0  0  # atno 4697 bound_to 1471
  -14.6380   18.3123   75.0012 LP  0  0  0  0  0  0  0  0  0  0  0  0  # atno 4731 bound_to 414 
  -15.4764   17.1176   75.7337 LP  0  0  0  0  0  0  0  0  0  0  0  0  # atno 4732 bound_to 414 
  -14.0495   15.5240   60.9388 LP  0  0  0  0  0  0  0  0  0  0  0  0  # atno 4733 bound_to 1114
  -13.3961   16.4519   62.1130 LP  0  0  0  0  0  0  0  0  0  0  0  0  # atno 4734 bound_to 1114
  -10.4441   14.9017   56.8379 LP  0  0  0  0  0  0  0  0  0  0  0  0  # atno 4763 bound_to 924 
  -11.9876   15.3608   56.5670 LP  0  0  0  0  0  0  0  0  0  0  0  0  # atno 4764 bound_to 924 
  -20.8659   12.3883   63.3936 LP  0  0  0  0  0  0  0  0  0  0  0  0  # atno 4771 bound_to 1244
  -20.6327   13.3990   64.6549 LP  0  0  0  0  0  0  0  0  0  0  0  0  # atno 4772 bound_to 1244
   -6.4396   23.9750   72.0652 LP  0  0  0  0  0  0  0  0  0  0  0  0  # atno 4775 bound_to 178 
   -6.4836   22.4955   71.3755 LP  0  0  0  0  0  0  0  0  0  0  0  0  # atno 4776 bound_to 178 
   -2.9005   24.9989   72.6565 LP  0  0  0  0  0  0  0  0  0  0  0  0  # atno 4779 bound_to 171 
   -1.7701   23.8690   72.3219 LP  0  0  0  0  0  0  0  0  0  0  0  0  # atno 4780 bound_to 171 
   -8.8224   25.8653   63.9558 LP  0  0  0  0  0  0  0  0  0  0  0  0  # atno 4783 bound_to 185 
   -7.6013   25.1980   63.1013 LP  0  0  0  0  0  0  0  0  0  0  0  0  # atno 4784 bound_to 185 
   -3.2899   18.3399   73.0779 LP  0  0  0  0  0  0  0  0  0  0  0  0  # atno 4785 bound_to 346 
   -3.0854   16.8105   72.5433 LP  0  0  0  0  0  0  0  0  0  0  0  0  # atno 4786 bound_to 346 
   -3.5159   20.5809   74.5884 LP  0  0  0  0  0  0  0  0  0  0  0  0  # atno 4787 bound_to 339 
   -2.6522   21.3345   75.7515 LP  0  0  0  0  0  0  0  0  0  0  0  0  # atno 4788 bound_to 339 
   -6.8074   28.6873   65.3893 LP  0  0  0  0  0  0  0  0  0  0  0  0  # atno 4797 bound_to 154 
   -7.6800   29.9967   64.9526 LP  0  0  0  0  0  0  0  0  0  0  0  0  # atno 4798 bound_to 154 

> <Gold.Score>
     Score     S(PLP)   S(hbond)     S(cho)   S(metal)  DE(clash)   DE(tors)     intcor
     58.05     -47.45       1.72       2.18       0.00       0.00       0.58       0.05

> <Gold.PLP.Fitness>
58.0547

> <Gold.PLP.PLP>
-47.4494

> <Gold.PLP.part.hbond>
-2.0000

> <Gold.PLP.part.metal>
0.0000

> <Gold.PLP.part.buried>
-6.2216

> <Gold.PLP.part.nonpolar>
-41.6319

> <Gold.PLP.part.repulsive>
0.4407

> <Gold.PLP.ligand.clash>
0.0000

> <Gold.PLP.ligand.torsion>
0.5790

> <Gold.PLP.Chemscore.Hbond>
1.7236

> <Gold.PLP.Chemscore.CHOScore>
2.1815

> <Gold.PLP.Chemscore.Metal>
0.0000

> <Gold.Chemscore.Hbonds>
donor molecule, donor type, donor heavy atom, donor atom, acceptor molecule, acceptor atom, score
      L1  H     3    19       P1  1464  0.93
      L1  H    12    28       P1  1464  0.80
      L1  C     8    25       P1  1262  0.74
      L1  C    10    26       P1  1289  0.66
      L1  C    10    26       P1  1081  0.78

> <Gold.PLP.Chemscore.Internal.Correction>
0.0480

#       Name:                unknown
#       Creating user name   williammccorkindale
#       Creation time:       Tue Jun  7 14:55:42 2022


#       File generated by GOLD software.
#

@<TRIPOS>MOLECULE
unknown|prepared_Mpro-x0540|mol2|1|dock1
    42    43     1
SMALL
NO_CHARGES


@<TRIPOS>ATOM
      1 O1         -10.8241  13.8566  69.2136 O.2            1 RES1               0.0000
      2 C2         -11.5125  14.8953  69.1777 C.2            1 RES1               0.0000
      3 N3         -11.6068  15.5807  67.9328 N.am           1 RES1               0.0000
      4 C4         -10.9370  15.0943  66.7711 C.3            1 RES1               0.0000
      5 C5         -10.9556  16.0365  65.6033 C.3            1 RES1               0.0000
      6 C6         -10.2016  17.2685  66.0273 C.ar           1 RES1               0.0000
      7 C7          -8.8641  17.1731  66.3998 C.ar           1 RES1               0.0000
      8 C8          -8.1423  18.2806  66.7938 C.ar           1 RES1               0.0000
      9 N9          -8.7966  19.4568  66.7996 N.ar           1 RES1               0.0000
     10 C10        -10.0667  19.6121  66.4565 C.ar           1 RES1               0.0000
     11 C11        -10.7959  18.5095  66.0613 C.ar           1 RES1               0.0000
     12 N12        -12.1468  15.3186  70.3632 N.am           1 RES1               0.0000
     13 C13        -12.0209  14.5788  71.6247 C.3            1 RES1               0.0000
     14 C14        -12.6999  15.3894  72.6930 C.3            1 RES1               0.0000
     15 C15        -14.1610  15.6163  72.4034 C.3            1 RES1               0.0000
     16 C16        -14.8651  14.4117  71.8764 C.3            1 RES1               0.0000
     17 C17        -14.0385  13.1915  72.1811 C.3            1 RES1               0.0000
     18 C18        -12.6764  13.2366  71.5474 C.3            1 RES1               0.0000
     19 H19        -12.1895  16.4478  67.9305 H              1 RES1               0.0000
     20 H20        -11.4415  14.1599  66.4485 H              1 RES1               0.0000
     21 H21         -9.8734  14.8028  66.9715 H              1 RES1               0.0000
     22 H22        -10.4602  15.5684  64.7314 H              1 RES1               0.0000
     23 H23        -11.9732  16.4002  65.3494 H              1 RES1               0.0000
     24 H24         -8.3622  16.2056  66.3846 H              1 RES1               0.0000
     25 H25         -7.0935  18.1856  67.0825 H              1 RES1               0.0000
     26 H26        -10.5857  20.5710  66.4655 H              1 RES1               0.0000
     27 H27        -11.8449  18.5805  65.7685 H              1 RES1               0.0000
     28 H28        -12.7200  16.1809  70.3397 H              1 RES1               0.0000
     29 H29        -10.9524  14.4934  71.9008 H              1 RES1               0.0000
     30 H30        -12.2249  16.3774  72.8010 H              1 RES1               0.0000
     31 H31        -12.6479  14.8142  73.6461 H              1 RES1               0.0000
     32 H32        -14.3038  16.5294  71.7647 H              1 RES1               0.0000
     33 H33        -14.6329  15.8938  73.3880 H              1 RES1               0.0000
     34 H34        -15.8458  14.2708  72.3870 H              1 RES1               0.0000
     35 H35        -15.1180  14.4931  70.7860 H              1 RES1               0.0000
     36 H36        -13.9860  13.0823  73.2669 H              1 RES1               0.0000
     37 H37        -14.5706  12.3127  71.7443 H              1 RES1               0.0000
     38 H38        -12.6733  12.8681  70.4964 H              1 RES1               0.0000
     39 H39        -12.0173  12.5164  72.1138 H              1 RES1               0.0000
     40 ****       -10.3630  13.5336  68.3871 LP             1 RES1               0.0000
     41 ****       -10.7329  13.3465  70.0688 LP             1 RES1               0.0000
     42 ****        -8.2884  20.2703  67.0825 LP             1 RES1               0.0000
@<TRIPOS>BOND
    1    1    2 2     
    2    2    3 am    
    3    3    4 1     
    4    4    5 1     
    5    5    6 1     
    6    6    7 ar    
    7    7    8 ar    
    8    8    9 ar    
    9    9   10 ar    
   10   10   11 ar    
   11    2   12 am    
   12   12   13 1     
   13   13   14 1     
   14   14   15 1     
   15   15   16 1     
   16   16   17 1     
   17   17   18 1     
   18    6   11 ar    
   19   18   13 1     
   20    3   19 1     
   21    4   20 1     
   22    4   21 1     
   23    5   22 1     
   24    5   23 1     
   25    7   24 1     
   26    8   25 1     
   27   10   26 1     
   28   11   27 1     
   29   12   28 1     
   30   13   29 1     
   31   14   30 1     
   32   14   31 1     
   33   15   32 1     
   34   15   33 1     
   35   16   34 1     
   36   16   35 1     
   37   17   36 1     
   38   17   37 1     
   39   18   38 1     
   40   18   39 1     
   41    1   40 1     
   42    1   41 1     
   43    9   42 1     
@<TRIPOS>SUBSTRUCTURE
      1 RES1           1
@<TRIPOS>SET
LONE_PAIRS      STATIC     ATOMS    <user>   **** ""
3 40 41 42
DONOR_HYDROGENS      STATIC     ATOMS    <user>   **** ""
2 19 28
ATOM$BLUE        STATIC     ATOMS    COLORGROUP SYSTEM
3 40 41 42
ATOM$RED        STATIC     ATOMS    COLORGROUP SYSTEM
2 19 28
@<TRIPOS>COMMENT
> <Gold.Version>
2022.1.0

> <Gold.Id.Protein>
6LU7|6LU7_protein|mol2

> <Gold.Protein.RotatedTorsions>
[ 3973 1471 1470 1467 ] final -124.99 input   60.00 | X-H torsion
[ 3372  414  413  411 ] final  128.62 input   60.00 | X-H torsion
[ 4268 1114 1113 1110 ] final   12.22 input   59.99 | X-H torsion
[ 4409  924  923  921 ] final -140.12 input   59.99 | X-H torsion
[ 4183 1244 1243 1241 ] final   54.56 input   59.99 | X-H torsion
[ 3800  178  177  174 ] final -103.77 input   60.00 | X-H torsion
[ 3793  171  170  167 ] final -130.72 input   60.00 | X-H torsion
[ 3576  185  184  181 ] final -120.41 input   60.00 | X-H torsion
[ 3523  346  345  342 ] final   32.83 input   60.01 | X-H torsion
[ 3515  339  338  335 ] final  178.68 input   60.00 | X-H torsion
[ 3663  154  153  150 ] final   34.51 input   60.00 | X-H torsion
[ 4280 1130 1129 1126 ] final   77.54 input   60.00 | X-H torsion

> <Gold.Protein.ActiveResidues>
 VAL20   THR21   CYS22   GLY23   THR24   THR25   THR26   LEU27   ASN28   PRO39  
 ARG40   HIS41   VAL42   CYS44   THR45   SER46   ASP48   MET49   LEU50   PRO52  
 TYR54   TYR118  ASN119  ILE136  GLY138  SER139  PHE140  LEU141  ASN142  GLY143 
 SER144  CYS145  GLY146  SER147  TYR161  HIS163  HIS164  MET165  GLU166  LEU167 
 PRO168  THR169  GLY170  VAL171  HIS172  ALA173  PHE181  PHE185  VAL186  ASP187 
 ARG188  GLN189  THR190  ALA191  GLN192  ALA193 

> <Gold.Protein.RotatedAtoms>
  -14.3714   17.1538   76.3916 H   0  0  0  0  0  0  0  0  0  0  0  0  # atno 3372 bound_to 414 
   -2.6947   21.9406   75.5381 H   0  0  0  0  0  0  0  0  0  0  0  0  # atno 3515 bound_to 339 
   -3.2719   18.3437   73.0832 H   0  0  0  0  0  0  0  0  0  0  0  0  # atno 3523 bound_to 346 
   -7.4923   25.2923   63.0743 H   0  0  0  0  0  0  0  0  0  0  0  0  # atno 3576 bound_to 185 
   -8.5775   29.1256   65.2121 H   0  0  0  0  0  0  0  0  0  0  0  0  # atno 3663 bound_to 154 
   -1.8720   24.4898   72.6608 H   0  0  0  0  0  0  0  0  0  0  0  0  # atno 3793 bound_to 171 
   -7.1125   22.2835   71.6660 H   0  0  0  0  0  0  0  0  0  0  0  0  # atno 3800 bound_to 178 
  -15.3125    8.9698   78.2220 H   0  0  0  0  0  0  0  0  0  0  0  0  # atno 3973 bound_to 1471
  -20.9673   12.3810   63.6257 H   0  0  0  0  0  0  0  0  0  0  0  0  # atno 4183 bound_to 1244
  -13.4019   16.4495   62.1051 H   0  0  0  0  0  0  0  0  0  0  0  0  # atno 4268 bound_to 1114
  -15.5628   19.4974   59.6443 H   0  0  0  0  0  0  0  0  0  0  0  0  # atno 4280 bound_to 1130
  -11.4497   15.2291   58.0870 H   0  0  0  0  0  0  0  0  0  0  0  0  # atno 4409 bound_to 924 
  -15.6884    7.3996   78.0197 LP  0  0  0  0  0  0  0  0  0  0  0  0  # atno 4696 bound_to 1471
  -15.0336    8.2505   76.7893 LP  0  0  0  0  0  0  0  0  0  0  0  0  # atno 4697 bound_to 1471
  -14.1704   18.3254   75.2803 LP  0  0  0  0  0  0  0  0  0  0  0  0  # atno 4731 bound_to 414 
  -15.5565   17.4629   75.3201 LP  0  0  0  0  0  0  0  0  0  0  0  0  # atno 4732 bound_to 414 
  -12.4665   15.3706   61.3248 LP  0  0  0  0  0  0  0  0  0  0  0  0  # atno 4733 bound_to 1114
  -14.0453   15.5192   60.9352 LP  0  0  0  0  0  0  0  0  0  0  0  0  # atno 4734 bound_to 1114
  -10.4378   14.9002   56.8558 LP  0  0  0  0  0  0  0  0  0  0  0  0  # atno 4763 bound_to 924 
  -11.9760   15.3570   56.5526 LP  0  0  0  0  0  0  0  0  0  0  0  0  # atno 4764 bound_to 924 
  -20.4720   13.5877   64.5985 LP  0  0  0  0  0  0  0  0  0  0  0  0  # atno 4771 bound_to 1244
  -19.9236   13.4955   63.0632 LP  0  0  0  0  0  0  0  0  0  0  0  0  # atno 4772 bound_to 1244
   -7.4295   23.6307   72.5220 LP  0  0  0  0  0  0  0  0  0  0  0  0  # atno 4775 bound_to 178 
   -6.0720   23.5338   71.6195 LP  0  0  0  0  0  0  0  0  0  0  0  0  # atno 4776 bound_to 178 
   -2.6480   23.3783   71.7606 LP  0  0  0  0  0  0  0  0  0  0  0  0  # atno 4779 bound_to 171 
   -3.4472   24.6934   72.3071 LP  0  0  0  0  0  0  0  0  0  0  0  0  # atno 4780 bound_to 171 
   -7.6437   26.8197   63.6145 LP  0  0  0  0  0  0  0  0  0  0  0  0  # atno 4783 bound_to 185 
   -8.8187   25.7253   63.9115 LP  0  0  0  0  0  0  0  0  0  0  0  0  # atno 4784 bound_to 185 
   -3.1017   16.8176   72.5446 LP  0  0  0  0  0  0  0  0  0  0  0  0  # atno 4785 bound_to 346 
   -1.7864   17.6904   72.9626 LP  0  0  0  0  0  0  0  0  0  0  0  0  # atno 4786 bound_to 346 
   -3.5857   21.7237   74.1938 LP  0  0  0  0  0  0  0  0  0  0  0  0  # atno 4787 bound_to 339 
   -3.1911   20.4455   75.1304 LP  0  0  0  0  0  0  0  0  0  0  0  0  # atno 4788 bound_to 339 
   -7.2001   28.3087   65.5010 LP  0  0  0  0  0  0  0  0  0  0  0  0  # atno 4797 bound_to 154 
   -7.1419   29.8640   65.0070 LP  0  0  0  0  0  0  0  0  0  0  0  0  # atno 4798 bound_to 154 

> <Gold.Score>
     Score     S(PLP)   S(hbond)     S(cho)   S(metal)  DE(clash)   DE(tors)     intcor
     49.04     -49.12       0.00       0.00       0.00       0.00       0.08       0.08

> <Gold.PLP.Fitness>
49.0387

> <Gold.PLP.PLP>
-49.1177

> <Gold.PLP.part.hbond>
0.0000

> <Gold.PLP.part.metal>
0.0000

> <Gold.PLP.part.buried>
-8.1631

> <Gold.PLP.part.nonpolar>
-42.6773

> <Gold.PLP.part.repulsive>
0.2138

> <Gold.PLP.ligand.clash>
0.0000

> <Gold.PLP.ligand.torsion>
0.0813

> <Gold.PLP.Chemscore.Hbond>
0.0000

> <Gold.PLP.Chemscore.CHOScore>
0.0000

> <Gold.PLP.Chemscore.Metal>
0.0000

> <Gold.PLP.Chemscore.Internal.Correction>
0.0836

#       Name:                unknown
#       Creating user name   williammccorkindale
#       Creation time:       Tue Jun  7 14:55:43 2022


#       File generated by GOLD software.
#

@<TRIPOS>MOLECULE
unknown|prepared_Mpro-x0397|mol2|1|dock1
    35    36     1
SMALL
NO_CHARGES


@<TRIPOS>ATOM
      1 C1         -11.7498  10.8151  69.1877 C.3            1 RES1               0.0000
      2 N2         -11.7181  12.2060  69.5883 N.am           1 RES1               0.0000
      3 C3         -11.0231  13.1610  68.7642 C.3            1 RES1               0.0000
      4 C4         -11.6250  13.2590  67.4060 C.2            1 RES1               0.0000
      5 C5         -11.6402  12.3339  66.3829 C.2            1 RES1               0.0000
      6 C6         -12.3325  12.9031  65.3077 C.2            1 RES1               0.0000
      7 C7         -12.5914  12.2599  63.9926 C.3            1 RES1               0.0000
      8 O8         -12.6924  14.1010  65.7104 O.3            1 RES1               0.0000
      9 N9         -12.2904  14.3246  66.9256 N.2            1 RES1               0.0000
     10 C10        -12.3842  12.5592  70.7918 C.2            1 RES1               0.0000
     11 O11        -12.9837  11.7099  71.4953 O.2            1 RES1               0.0000
     12 N12        -12.4153  13.9016  71.2793 N.am           1 RES1               0.0000
     13 C13        -13.0789  14.2930  72.4912 C.3            1 RES1               0.0000
     14 C14        -12.8999  15.7778  72.8396 C.3            1 RES1               0.0000
     15 C15        -14.2535  15.2653  72.3777 C.3            1 RES1               0.0000
     16 H16        -12.6198  10.2714  69.6487 H              1 RES1               0.0000
     17 H17        -10.8478  10.2941  69.6131 H              1 RES1               0.0000
     18 H18        -11.8256  10.6701  68.1094 H              1 RES1               0.0000
     19 H19        -10.9943  14.1413  69.2814 H              1 RES1               0.0000
     20 H20         -9.9464  12.8393  68.6917 H              1 RES1               0.0000
     21 H21        -11.1925  11.3552  66.4271 H              1 RES1               0.0000
     22 H22        -13.5128  12.6185  63.5195 H              1 RES1               0.0000
     23 H23        -12.6843  11.1486  64.1042 H              1 RES1               0.0000
     24 H24        -11.7137  12.4196  63.3126 H              1 RES1               0.0000
     25 H25        -11.9323  14.6376  70.7289 H              1 RES1               0.0000
     26 H26        -13.1032  13.5751  73.3431 H              1 RES1               0.0000
     27 H27        -12.3174  16.4085  72.1457 H              1 RES1               0.0000
     28 H28        -12.7937  16.0358  73.9127 H              1 RES1               0.0000
     29 H29        -15.0324  15.2330  73.1575 H              1 RES1               0.0000
     30 H30        -14.5264  15.5141  71.3485 H              1 RES1               0.0000
     31 ****       -13.6894  14.1711  65.6778 LP             1 RES1               0.0000
     32 ****       -12.2901  14.7851  65.1019 LP             1 RES1               0.0000
     33 ****       -12.4531  15.1709  67.4329 LP             1 RES1               0.0000
     34 ****       -13.0022  10.7506  71.2135 LP             1 RES1               0.0000
     35 ****       -13.4428  11.9926  72.3375 LP             1 RES1               0.0000
@<TRIPOS>BOND
    1    1    2 1     
    2    2    3 1     
    3    3    4 1     
    4    4    5 1     
    5    5    6 2     
    6    6    7 1     
    7    6    8 1     
    8    8    9 1     
    9    2   10 am    
   10   10   11 2     
   11   10   12 am    
   12   12   13 1     
   13   13   14 1     
   14   14   15 1     
   15    4    9 2     
   16   15   13 1     
   17    1   16 1     
   18    1   17 1     
   19    1   18 1     
   20    3   19 1     
   21    3   20 1     
   22    5   21 1     
   23    7   22 1     
   24    7   23 1     
   25    7   24 1     
   26   12   25 1     
   27   13   26 1     
   28   14   27 1     
   29   14   28 1     
   30   15   29 1     
   31   15   30 1     
   32    8   31 1     
   33    8   32 1     
   34    9   33 1     
   35   11   34 1     
   36   11   35 1     
@<TRIPOS>SUBSTRUCTURE
      1 RES1           1
@<TRIPOS>SET
LONE_PAIRS      STATIC     ATOMS    <user>   **** ""
5 31 32 33 34 35
DONOR_HYDROGENS      STATIC     ATOMS    <user>   **** ""
1 25
ATOM$BLUE        STATIC     ATOMS    COLORGROUP SYSTEM
5 31 32 33 34 35
ATOM$RED        STATIC     ATOMS    COLORGROUP SYSTEM
1 25
@<TRIPOS>COMMENT
> <Gold.Version>
2022.1.0

> <Gold.Id.Protein>
6LU7|6LU7_protein|mol2

> <Gold.Protein.RotatedTorsions>
[ 3973 1471 1470 1467 ] final -114.43 input   60.00 | X-H torsion
[ 3372  414  413  411 ] final  -42.79 input   60.00 | X-H torsion
[ 4268 1114 1113 1110 ] final  -17.15 input   59.99 | X-H torsion
[ 4409  924  923  921 ] final   37.73 input   59.99 | X-H torsion
[ 4183 1244 1243 1241 ] final  149.42 input   59.99 | X-H torsion
[ 3800  178  177  174 ] final -119.75 input   60.00 | X-H torsion
[ 3793  171  170  167 ] final  176.74 input   60.00 | X-H torsion
[ 3576  185  184  181 ] final  146.20 input   60.00 | X-H torsion
[ 3523  346  345  342 ] final -163.35 input   60.01 | X-H torsion
[ 3515  339  338  335 ] final  -34.41 input   60.00 | X-H torsion
[ 3663  154  153  150 ] final   68.09 input   60.00 | X-H torsion
[ 4280 1130 1129 1126 ] final -133.93 input   60.00 | X-H torsion

> <Gold.Protein.ActiveResidues>
 VAL20   THR21   CYS22   GLY23   THR24   THR25   THR26   LEU27   ASN28   PRO39  
 ARG40   HIS41   VAL42   CYS44   THR45   SER46   ASP48   MET49   LEU50   PRO52  
 TYR54   TYR118  ASN119  ILE136  GLY138  SER139  PHE140  LEU141  ASN142  GLY143 
 SER144  CYS145  GLY146  SER147  TYR161  HIS163  HIS164  MET165  GLU166  LEU167 
 PRO168  THR169  GLY170  VAL171  HIS172  ALA173  PHE181  PHE185  VAL186  ASP187 
 ARG188  GLN189  THR190  ALA191  GLN192  ALA193 

> <Gold.Protein.RotatedAtoms>
  -14.9048   18.2090   74.9465 H   0  0  0  0  0  0  0  0  0  0  0  0  # atno 3372 bound_to 414 
   -3.4215   20.4946   74.7620 H   0  0  0  0  0  0  0  0  0  0  0  0  # atno 3515 bound_to 339 
   -1.9825   17.0614   72.7231 H   0  0  0  0  0  0  0  0  0  0  0  0  # atno 3523 bound_to 346 
   -7.3397   26.6087   63.3909 H   0  0  0  0  0  0  0  0  0  0  0  0  # atno 3576 bound_to 185 
   -8.4029   29.6146   65.0603 H   0  0  0  0  0  0  0  0  0  0  0  0  # atno 3663 bound_to 154 
   -1.8145   23.7734   72.2483 H   0  0  0  0  0  0  0  0  0  0  0  0  # atno 3793 bound_to 171 
   -7.3175   22.3322   71.8188 H   0  0  0  0  0  0  0  0  0  0  0  0  # atno 3800 bound_to 178 
  -15.2442    9.0464   78.0835 H   0  0  0  0  0  0  0  0  0  0  0  0  # atno 3973 bound_to 1471
  -20.1002   13.1666   62.8961 H   0  0  0  0  0  0  0  0  0  0  0  0  # atno 4183 bound_to 1244
  -12.9455   16.3220   62.1311 H   0  0  0  0  0  0  0  0  0  0  0  0  # atno 4268 bound_to 1114
  -16.2286   19.0237   58.0380 H   0  0  0  0  0  0  0  0  0  0  0  0  # atno 4280 bound_to 1130
  -11.1591   15.1081   56.2417 H   0  0  0  0  0  0  0  0  0  0  0  0  # atno 4409 bound_to 924 
  -15.7123    7.4900   78.1659 LP  0  0  0  0  0  0  0  0  0  0  0  0  # atno 4696 bound_to 1471
  -15.0785    8.0829   76.7826 LP  0  0  0  0  0  0  0  0  0  0  0  0  # atno 4697 bound_to 1471
  -15.3228   17.0007   75.9531 LP  0  0  0  0  0  0  0  0  0  0  0  0  # atno 4731 bound_to 414 
  -13.8669   17.7249   76.1026 LP  0  0  0  0  0  0  0  0  0  0  0  0  # atno 4732 bound_to 414 
  -12.7561   15.1590   61.0088 LP  0  0  0  0  0  0  0  0  0  0  0  0  # atno 4733 bound_to 1114
  -14.2154   15.8592   61.2250 LP  0  0  0  0  0  0  0  0  0  0  0  0  # atno 4734 bound_to 1114
  -12.1271   15.4199   57.5120 LP  0  0  0  0  0  0  0  0  0  0  0  0  # atno 4763 bound_to 924 
  -10.5794   14.9591   57.7549 LP  0  0  0  0  0  0  0  0  0  0  0  0  # atno 4764 bound_to 924 
  -21.0550   12.4706   64.0150 LP  0  0  0  0  0  0  0  0  0  0  0  0  # atno 4771 bound_to 1244
  -20.2140   13.8215   64.3814 LP  0  0  0  0  0  0  0  0  0  0  0  0  # atno 4772 bound_to 1244
   -7.2425   23.8118   72.4919 LP  0  0  0  0  0  0  0  0  0  0  0  0  # atno 4775 bound_to 178 
   -6.0525   23.3036   71.4957 LP  0  0  0  0  0  0  0  0  0  0  0  0  # atno 4776 bound_to 178 
   -3.3746   23.7882   71.7859 LP  0  0  0  0  0  0  0  0  0  0  0  0  # atno 4779 bound_to 171 
   -2.7785   25.0050   72.6973 LP  0  0  0  0  0  0  0  0  0  0  0  0  # atno 4780 bound_to 171 
   -8.7701   26.1445   64.0123 LP  0  0  0  0  0  0  0  0  0  0  0  0  # atno 4783 bound_to 185 
   -7.8461   25.0747   63.1948 LP  0  0  0  0  0  0  0  0  0  0  0  0  # atno 4784 bound_to 185 
   -2.5955   18.4951   73.1885 LP  0  0  0  0  0  0  0  0  0  0  0  0  # atno 4785 bound_to 346 
   -3.5910   17.3043   72.6812 LP  0  0  0  0  0  0  0  0  0  0  0  0  # atno 4786 bound_to 346 
   -2.6368   21.5482   75.7223 LP  0  0  0  0  0  0  0  0  0  0  0  0  # atno 4787 bound_to 339 
   -3.4080   22.0772   74.3836 LP  0  0  0  0  0  0  0  0  0  0  0  0  # atno 4788 bound_to 339 
   -7.7344   28.2046   65.5221 LP  0  0  0  0  0  0  0  0  0  0  0  0  # atno 4797 bound_to 154 
   -6.7834   29.4756   65.1389 LP  0  0  0  0  0  0  0  0  0  0  0  0  # atno 4798 bound_to 154 

> <Gold.Score>
     Score     S(PLP)   S(hbond)     S(cho)   S(metal)  DE(clash)   DE(tors)     intcor
     41.98     -42.11       0.00       0.00       0.00       0.00       0.09       0.05

> <Gold.PLP.Fitness>
41.9814

> <Gold.PLP.PLP>
-42.1074

> <Gold.PLP.part.hbond>
0.0000

> <Gold.PLP.part.metal>
0.0000

> <Gold.PLP.part.buried>
-7.8370

> <Gold.PLP.part.nonpolar>
-35.4824

> <Gold.PLP.part.repulsive>
0.3769

> <Gold.PLP.ligand.clash>
0.0000

> <Gold.PLP.ligand.torsion>
0.0862

> <Gold.PLP.Chemscore.Hbond>
0.0000

> <Gold.PLP.Chemscore.CHOScore>
0.0000

> <Gold.PLP.Chemscore.Metal>
0.0000

> <Gold.PLP.Chemscore.Internal.Correction>
0.0464

#       Name:                unknown
#       Creating user name   williammccorkindale
#       Creation time:       Tue Jun  7 14:55:43 2022


#       File generated by GOLD software.
#

@<TRIPOS>MOLECULE
unknown|prepared_Mpro-x0397|mol2|1|dock2
    35    36     1
SMALL
NO_CHARGES


@<TRIPOS>ATOM
      1 C1         -12.7492  10.5298  70.5703 C.3            1 RES1               0.0000
      2 N2         -11.9971  11.6415  70.0274 N.am           1 RES1               0.0000
      3 C3         -11.0885  11.4105  68.9341 C.3            1 RES1               0.0000
      4 C4         -11.5348  12.0978  67.6911 C.2            1 RES1               0.0000
      5 C5         -11.5747  11.6297  66.3942 C.2            1 RES1               0.0000
      6 C6         -12.0739  12.6592  65.5877 C.2            1 RES1               0.0000
      7 C7         -12.2871  12.5963  64.1178 C.3            1 RES1               0.0000
      8 O8         -12.3056  13.6664  66.3993 O.3            1 RES1               0.0000
      9 N9         -11.9986  13.3586  67.6237 N.2            1 RES1               0.0000
     10 C10        -12.1988  12.9200  70.6117 C.2            1 RES1               0.0000
     11 O11        -11.5642  13.9340  70.2312 O.2            1 RES1               0.0000
     12 N12        -13.1354  13.1351  71.6687 N.am           1 RES1               0.0000
     13 C13        -13.3640  14.4136  72.2815 C.3            1 RES1               0.0000
     14 C14        -13.5326  15.5588  71.2725 C.3            1 RES1               0.0000
     15 C15        -14.7290  15.0700  72.0712 C.3            1 RES1               0.0000
     16 H16        -13.6781  10.8783  71.1001 H              1 RES1               0.0000
     17 H17        -12.1410  10.0417  71.3814 H              1 RES1               0.0000
     18 H18        -13.0695   9.8072  69.8188 H              1 RES1               0.0000
     19 H19        -10.0653  11.7128  69.2358 H              1 RES1               0.0000
     20 H20        -11.0245  10.2991  68.7641 H              1 RES1               0.0000
     21 H21        -11.2707  10.6445  66.0824 H              1 RES1               0.0000
     22 H22        -13.1001  13.2488  63.7791 H              1 RES1               0.0000
     23 H23        -12.5407  11.5530  63.7964 H              1 RES1               0.0000
     24 H24        -11.3332  12.8496  63.5848 H              1 RES1               0.0000
     25 H25        -13.6827  12.3239  72.0154 H              1 RES1               0.0000
     26 H26        -12.8339  14.6534  73.2318 H              1 RES1               0.0000
     27 H27        -13.4898  15.3151  70.1967 H              1 RES1               0.0000
     28 H28        -13.1049  16.5435  71.5498 H              1 RES1               0.0000
     29 H29        -15.0941  15.7688  72.8420 H              1 RES1               0.0000
     30 H30        -15.4411  14.4480  71.5218 H              1 RES1               0.0000
     31 ****       -13.2757  13.9050  66.3556 LP             1 RES1               0.0000
     32 ****       -11.7561  14.4509  66.1119 LP             1 RES1               0.0000
     33 ****       -12.0938  13.9733  68.4067 LP             1 RES1               0.0000
     34 ****       -10.8921  13.8560  69.4948 LP             1 RES1               0.0000
     35 ****       -11.7306  14.8197  70.6645 LP             1 RES1               0.0000
@<TRIPOS>BOND
    1    1    2 1     
    2    2    3 1     
    3    3    4 1     
    4    4    5 1     
    5    5    6 2     
    6    6    7 1     
    7    6    8 1     
    8    8    9 1     
    9    2   10 am    
   10   10   11 2     
   11   10   12 am    
   12   12   13 1     
   13   13   14 1     
   14   14   15 1     
   15    4    9 2     
   16   15   13 1     
   17    1   16 1     
   18    1   17 1     
   19    1   18 1     
   20    3   19 1     
   21    3   20 1     
   22    5   21 1     
   23    7   22 1     
   24    7   23 1     
   25    7   24 1     
   26   12   25 1     
   27   13   26 1     
   28   14   27 1     
   29   14   28 1     
   30   15   29 1     
   31   15   30 1     
   32    8   31 1     
   33    8   32 1     
   34    9   33 1     
   35   11   34 1     
   36   11   35 1     
@<TRIPOS>SUBSTRUCTURE
      1 RES1           1
@<TRIPOS>SET
LONE_PAIRS      STATIC     ATOMS    <user>   **** ""
5 31 32 33 34 35
DONOR_HYDROGENS      STATIC     ATOMS    <user>   **** ""
1 25
ATOM$BLUE        STATIC     ATOMS    COLORGROUP SYSTEM
5 31 32 33 34 35
ATOM$RED        STATIC     ATOMS    COLORGROUP SYSTEM
1 25
@<TRIPOS>COMMENT
> <Gold.Version>
2022.1.0

> <Gold.Id.Protein>
6LU7|6LU7_protein|mol2

> <Gold.Protein.RotatedTorsions>
[ 3973 1471 1470 1467 ] final  117.14 input   60.00 | X-H torsion
[ 3372  414  413  411 ] final  128.88 input   60.00 | X-H torsion
[ 4268 1114 1113 1110 ] final  132.93 input   59.99 | X-H torsion
[ 4409  924  923  921 ] final   71.47 input   59.99 | X-H torsion
[ 4183 1244 1243 1241 ] final  128.49 input   59.99 | X-H torsion
[ 3800  178  177  174 ] final  -93.25 input   60.00 | X-H torsion
[ 3793  171  170  167 ] final  -74.49 input   60.00 | X-H torsion
[ 3576  185  184  181 ] final -148.73 input   60.00 | X-H torsion
[ 3523  346  345  342 ] final    9.48 input   60.01 | X-H torsion
[ 3515  339  338  335 ] final  122.89 input   60.00 | X-H torsion
[ 3663  154  153  150 ] final  -38.48 input   60.00 | X-H torsion
[ 4280 1130 1129 1126 ] final -136.91 input   60.00 | X-H torsion

> <Gold.Protein.ActiveResidues>
 VAL20   THR21   CYS22   GLY23   THR24   THR25   THR26   LEU27   ASN28   PRO39  
 ARG40   HIS41   VAL42   CYS44   THR45   SER46   ASP48   MET49   LEU50   PRO52  
 TYR54   TYR118  ASN119  ILE136  GLY138  SER139  PHE140  LEU141  ASN142  GLY143 
 SER144  CYS145  GLY146  SER147  TYR161  HIS163  HIS164  MET165  GLU166  LEU167 
 PRO168  THR169  GLY170  VAL171  HIS172  ALA173  PHE181  PHE185  VAL186  ASP187 
 ARG188  GLN189  THR190  ALA191  GLN192  ALA193 

> <Gold.Protein.RotatedAtoms>
  -14.3750   17.1515   76.3917 H   0  0  0  0  0  0  0  0  0  0  0  0  # atno 3372 bound_to 414 
   -3.0844   22.2975   74.8394 H   0  0  0  0  0  0  0  0  0  0  0  0  # atno 3515 bound_to 339 
   -3.5257   18.0860   72.9704 H   0  0  0  0  0  0  0  0  0  0  0  0  # atno 3523 bound_to 346 
   -7.2315   25.6679   63.0485 H   0  0  0  0  0  0  0  0  0  0  0  0  # atno 3576 bound_to 185 
   -7.9476   28.2548   65.5036 H   0  0  0  0  0  0  0  0  0  0  0  0  # atno 3663 bound_to 154 
   -2.5999   24.9827   72.7354 H   0  0  0  0  0  0  0  0  0  0  0  0  # atno 3793 bound_to 171 
   -6.9663   22.2879   71.5760 H   0  0  0  0  0  0  0  0  0  0  0  0  # atno 3800 bound_to 178 
  -15.6896    7.4207   78.0484 H   0  0  0  0  0  0  0  0  0  0  0  0  # atno 3973 bound_to 1471
  -20.2960   12.8890   62.8782 H   0  0  0  0  0  0  0  0  0  0  0  0  # atno 4183 bound_to 1244
  -14.0329   15.5151   60.9318 H   0  0  0  0  0  0  0  0  0  0  0  0  # atno 4268 bound_to 1114
  -16.2085   18.9839   58.0577 H   0  0  0  0  0  0  0  0  0  0  0  0  # atno 4280 bound_to 1130
  -10.6880   14.9708   56.4749 H   0  0  0  0  0  0  0  0  0  0  0  0  # atno 4409 bound_to 924 
  -15.0419    8.2166   76.7855 LP  0  0  0  0  0  0  0  0  0  0  0  0  # atno 4696 bound_to 1471
  -15.3004    8.9936   78.1983 LP  0  0  0  0  0  0  0  0  0  0  0  0  # atno 4697 bound_to 1471
  -14.1673   18.3246   75.2831 LP  0  0  0  0  0  0  0  0  0  0  0  0  # atno 4731 bound_to 414 
  -15.5560   17.4660   75.3172 LP  0  0  0  0  0  0  0  0  0  0  0  0  # atno 4732 bound_to 414 
  -13.4143   16.4536   62.1085 LP  0  0  0  0  0  0  0  0  0  0  0  0  # atno 4733 bound_to 1114
  -12.4620   15.3773   61.3331 LP  0  0  0  0  0  0  0  0  0  0  0  0  # atno 4734 bound_to 1114
  -12.1717   15.4234   56.9667 LP  0  0  0  0  0  0  0  0  0  0  0  0  # atno 4763 bound_to 924 
  -11.0093   15.0940   58.0653 LP  0  0  0  0  0  0  0  0  0  0  0  0  # atno 4764 bound_to 924 
  -21.0397   12.6509   64.3058 LP  0  0  0  0  0  0  0  0  0  0  0  0  # atno 4771 bound_to 1244
  -20.0320   13.9207   64.1086 LP  0  0  0  0  0  0  0  0  0  0  0  0  # atno 4772 bound_to 1244
   -7.5299   23.4900   72.5170 LP  0  0  0  0  0  0  0  0  0  0  0  0  # atno 4775 bound_to 178 
   -6.1188   23.6701   71.7151 LP  0  0  0  0  0  0  0  0  0  0  0  0  # atno 4776 bound_to 178 
   -1.8923   23.6405   72.1476 LP  0  0  0  0  0  0  0  0  0  0  0  0  # atno 4779 bound_to 171 
   -3.4697   23.9348   71.8449 LP  0  0  0  0  0  0  0  0  0  0  0  0  # atno 4780 bound_to 171 
   -8.0485   26.8347   63.8353 LP  0  0  0  0  0  0  0  0  0  0  0  0  # atno 4783 bound_to 185 
   -8.6767   25.3320   63.7166 LP  0  0  0  0  0  0  0  0  0  0  0  0  # atno 4784 bound_to 185 
   -2.7298   16.7324   72.5432 LP  0  0  0  0  0  0  0  0  0  0  0  0  # atno 4785 bound_to 346 
   -1.9027   18.0352   73.0776 LP  0  0  0  0  0  0  0  0  0  0  0  0  # atno 4786 bound_to 346 
   -3.6368   20.8538   74.3311 LP  0  0  0  0  0  0  0  0  0  0  0  0  # atno 4787 bound_to 339 
   -2.7476   20.9560   75.6968 LP  0  0  0  0  0  0  0  0  0  0  0  0  # atno 4788 bound_to 339 
   -6.7166   29.2759   65.2040 LP  0  0  0  0  0  0  0  0  0  0  0  0  # atno 4797 bound_to 154 
   -8.2597   29.7738   65.0105 LP  0  0  0  0  0  0  0  0  0  0  0  0  # atno 4798 bound_to 154 

> <Gold.Score>
     Score     S(PLP)   S(hbond)     S(cho)   S(metal)  DE(clash)   DE(tors)     intcor
     39.93     -40.57       0.00       0.00       0.00       0.00       0.34       0.05

> <Gold.PLP.Fitness>
39.9292

> <Gold.PLP.PLP>
-40.5726

> <Gold.PLP.part.hbond>
0.0000

> <Gold.PLP.part.metal>
0.0000

> <Gold.PLP.part.buried>
-6.7230

> <Gold.PLP.part.nonpolar>
-35.6961

> <Gold.PLP.part.repulsive>
0.7039

> <Gold.PLP.ligand.clash>
0.0000

> <Gold.PLP.ligand.torsion>
0.3449

> <Gold.PLP.Chemscore.Hbond>
0.0000

> <Gold.PLP.Chemscore.CHOScore>
0.0000

> <Gold.PLP.Chemscore.Metal>
0.0000

> <Gold.PLP.Chemscore.Internal.Correction>
0.0464

