#       Name:                xxxx
#       Creating user name   williammccorkindale
#       Creation time:       Sun May 22 19:49:21 2022


#       File generated by GOLD software.
#

@<TRIPOS>MOLECULE
xxxx|x0072|mol2|1|dock1
    26    26     1
SMALL
NO_CHARGES


@<TRIPOS>ATOM
      1 C01        -10.7983  18.7921  67.2884 C.3            1 LIG1101            0.0000
      2 S02        -10.1973  17.1771  66.7205 S.o2           1 LIG1101            0.0000
      3 O03         -8.7572  17.0203  66.9454 O.2            1 LIG1101            0.0000
      4 O04        -10.2349  17.0761  65.2715 O.2            1 LIG1101            0.0000
      5 N05        -11.1047  15.9270  67.4405 N.pl3          1 LIG1101            0.0000
      6 C06        -11.2543  15.9680  68.8723 C.3            1 LIG1101            0.0000
      7 C07        -11.7033  14.6603  69.5093 C.3            1 LIG1101            0.0000
      8 C08        -12.2454  15.0579  70.8735 C.ar           1 LIG1101            0.0000
      9 C09        -11.4881  15.8123  71.7599 C.ar           1 LIG1101            0.0000
     10 C10        -12.0308  16.1703  72.9828 C.ar           1 LIG1101            0.0000
     11 C11        -13.3277  15.8020  73.3044 C.ar           1 LIG1101            0.0000
     12 C12        -14.0846  15.0581  72.4088 C.ar           1 LIG1101            0.0000
     13 C13        -13.5380  14.6934  71.1947 C.ar           1 LIG1101            0.0000
     14 H1         -10.2806  19.5829  66.7474 H              1 LIG1101            0.0000
     15 H2         -11.8689  18.8666  67.1033 H              1 LIG1101            0.0000
     16 H3         -10.6063  18.8963  68.3553 H              1 LIG1101            0.0000
     17 H4         -11.5210  15.1866  66.8850 H              1 LIG1101            0.0000
     18 H5         -11.9920  16.7320  69.1132 H              1 LIG1101            0.0000
     19 H6         -10.2932  16.2422  69.3048 H              1 LIG1101            0.0000
     20 H7         -10.8622  13.9767  69.6153 H              1 LIG1101            0.0000
     21 H8         -12.4809  14.1889  68.9101 H              1 LIG1101            0.0000
     22 H9         -10.4771  16.1195  71.4961 H              1 LIG1101            0.0000
     23 H10        -11.4369  16.7428  73.6938 H              1 LIG1101            0.0000
     24 H11        -13.7544  16.0968  74.2620 H              1 LIG1101            0.0000
     25 H12        -15.1022  14.7646  72.6624 H              1 LIG1101            0.0000
     26 H13        -14.1294  14.1150  70.4864 H              1 LIG1101            0.0000
@<TRIPOS>BOND
    1    1    2 1     
    2    2    3 2     
    3    2    4 2     
    4    2    5 1     
    5    5    6 1     
    6    6    7 1     
    7    7    8 1     
    8    8    9 ar    
    9    9   10 ar    
   10   10   11 ar    
   11   11   12 ar    
   12    8   13 ar    
   13   12   13 ar    
   14    1   14 1     
   15    1   15 1     
   16    1   16 1     
   17    5   17 1     
   18    6   18 1     
   19    6   19 1     
   20    7   20 1     
   21    7   21 1     
   22    9   22 1     
   23   10   23 1     
   24   11   24 1     
   25   12   25 1     
   26   13   26 1     
@<TRIPOS>SUBSTRUCTURE
      1 LIG1101        1
@<TRIPOS>SET
LONE_PAIRS      STATIC     ATOMS    <user>   **** ""
2 3 4
DONOR_HYDROGENS      STATIC     ATOMS    <user>   **** ""
1 17
ATOM$BLUE        STATIC     ATOMS    COLORGROUP SYSTEM
2 3 4
ATOM$RED        STATIC     ATOMS    COLORGROUP SYSTEM
1 17
@<TRIPOS>COMMENT
> <Gold.Version>
2022.1.0

> <Gold.Id.Protein>
6LU7|6LU7_protein|mol2

> <Gold.Protein.RotatedTorsions>
[ 3973 1471 1470 1467 ] final -175.46 input   60.00 | X-H torsion
[ 3372  414  413  411 ] final   55.75 input   60.00 | X-H torsion
[ 4268 1114 1113 1110 ] final   52.52 input   59.99 | X-H torsion
[ 4409  924  923  921 ] final -122.88 input   59.99 | X-H torsion
[ 4183 1244 1243 1241 ] final   40.63 input   59.99 | X-H torsion
[ 3800  178  177  174 ] final   83.09 input   60.00 | X-H torsion
[ 3793  171  170  167 ] final -115.64 input   60.00 | X-H torsion
[ 3576  185  184  181 ] final  112.11 input   60.00 | X-H torsion
[ 3523  346  345  342 ] final  -30.73 input   60.01 | X-H torsion
[ 3515  339  338  335 ] final  -98.52 input   60.00 | X-H torsion
[ 3663  154  153  150 ] final  132.54 input   60.00 | X-H torsion
[ 4280 1130 1129 1126 ] final    5.72 input   60.00 | X-H torsion

> <Gold.Protein.ActiveResidues>
 VAL20   THR21   CYS22   GLY23   THR24   THR25   THR26   LEU27   ASN28   PRO39  
 ARG40   HIS41   VAL42   CYS44   THR45   SER46   ASP48   MET49   LEU50   PRO52  
 TYR54   TYR118  ASN119  ILE136  GLY138  SER139  PHE140  LEU141  ASN142  GLY143 
 SER144  CYS145  GLY146  SER147  TYR161  HIS163  HIS164  MET165  GLU166  LEU167 
 PRO168  THR169  GLY170  VAL171  HIS172  ALA173  PHE181  PHE185  VAL186  ASP187 
 ARG188  GLN189  THR190  ALA191  GLN192  ALA193 

> <Gold.Protein.RotatedAtoms>
  -13.8433   17.9744   75.8584 H   0  0  0  0  0  0  0  0  0  0  0  0  # atno 3372 bound_to 414 
   -2.8750   20.7158   75.5619 H   0  0  0  0  0  0  0  0  0  0  0  0  # atno 3515 bound_to 339 
   -3.6417   17.4932   72.7478 H   0  0  0  0  0  0  0  0  0  0  0  0  # atno 3523 bound_to 346 
   -7.7471   26.8382   63.6781 H   0  0  0  0  0  0  0  0  0  0  0  0  # atno 3576 bound_to 185 
   -7.4783   29.9793   64.9651 H   0  0  0  0  0  0  0  0  0  0  0  0  # atno 3663 bound_to 154 
   -2.0181   24.6756   72.7279 H   0  0  0  0  0  0  0  0  0  0  0  0  # atno 3793 bound_to 171 
   -6.7275   24.0127   72.2619 H   0  0  0  0  0  0  0  0  0  0  0  0  # atno 3800 bound_to 178 
  -15.6133    8.3166   78.5686 H   0  0  0  0  0  0  0  0  0  0  0  0  # atno 3973 bound_to 1471
  -21.0280   12.4165   63.8416 H   0  0  0  0  0  0  0  0  0  0  0  0  # atno 4183 bound_to 1244
  -13.9642   16.3463   61.8065 H   0  0  0  0  0  0  0  0  0  0  0  0  # atno 4268 bound_to 1114
  -16.0298   20.3639   59.1574 H   0  0  0  0  0  0  0  0  0  0  0  0  # atno 4280 bound_to 1130
  -11.7037   15.3038   57.9942 H   0  0  0  0  0  0  0  0  0  0  0  0  # atno 4409 bound_to 924 
  -15.4386    7.3707   77.2561 LP  0  0  0  0  0  0  0  0  0  0  0  0  # atno 4696 bound_to 1471
  -14.9805    8.9372   77.2039 LP  0  0  0  0  0  0  0  0  0  0  0  0  # atno 4697 bound_to 1471
  -15.1985   18.0193   74.9587 LP  0  0  0  0  0  0  0  0  0  0  0  0  # atno 4731 bound_to 414 
  -15.0603   16.9426   76.1787 LP  0  0  0  0  0  0  0  0  0  0  0  0  # atno 4732 bound_to 414 
  -12.4256   15.8164   61.7952 LP  0  0  0  0  0  0  0  0  0  0  0  0  # atno 4733 bound_to 1114
  -13.5199   15.1773   60.7654 LP  0  0  0  0  0  0  0  0  0  0  0  0  # atno 4734 bound_to 1114
  -10.3863   14.8897   57.1334 LP  0  0  0  0  0  0  0  0  0  0  0  0  # atno 4763 bound_to 924 
  -11.7717   15.2923   56.3684 LP  0  0  0  0  0  0  0  0  0  0  0  0  # atno 4764 bound_to 924 
  -20.3262   13.7308   64.4958 LP  0  0  0  0  0  0  0  0  0  0  0  0  # atno 4771 bound_to 1244
  -20.0083   13.3168   62.9485 LP  0  0  0  0  0  0  0  0  0  0  0  0  # atno 4772 bound_to 1244
   -6.2457   22.7535   71.3507 LP  0  0  0  0  0  0  0  0  0  0  0  0  # atno 4775 bound_to 178 
   -7.6435   22.6696   72.1908 LP  0  0  0  0  0  0  0  0  0  0  0  0  # atno 4776 bound_to 178 
   -2.4108   23.3758   71.8312 LP  0  0  0  0  0  0  0  0  0  0  0  0  # atno 4779 bound_to 171 
   -3.5372   24.5089   72.1690 LP  0  0  0  0  0  0  0  0  0  0  0  0  # atno 4780 bound_to 171 
   -8.8001   25.6120   63.8673 LP  0  0  0  0  0  0  0  0  0  0  0  0  # atno 4783 bound_to 185 
   -7.4058   25.3761   63.0506 LP  0  0  0  0  0  0  0  0  0  0  0  0  # atno 4784 bound_to 185 
   -2.1207   16.9216   72.6594 LP  0  0  0  0  0  0  0  0  0  0  0  0  # atno 4785 bound_to 346 
   -2.3950   18.4429   73.1856 LP  0  0  0  0  0  0  0  0  0  0  0  0  # atno 4786 bound_to 346 
   -2.9220   22.2739   75.0949 LP  0  0  0  0  0  0  0  0  0  0  0  0  # atno 4787 bound_to 339 
   -3.6733   21.1288   74.2054 LP  0  0  0  0  0  0  0  0  0  0  0  0  # atno 4788 bound_to 339 
   -8.5282   28.7873   65.3186 LP  0  0  0  0  0  0  0  0  0  0  0  0  # atno 4797 bound_to 154 
   -6.9208   28.5256   65.4383 LP  0  0  0  0  0  0  0  0  0  0  0  0  # atno 4798 bound_to 154 

> <Gold.Score>
     Score     S(PLP)   S(hbond)     S(cho)   S(metal)  DE(clash)   DE(tors)     intcor
     43.27     -40.76       1.00       0.00       0.00       0.00       0.81       1.12

> <Gold.PLP.Fitness>
43.2692

> <Gold.PLP.PLP>
-40.7648

> <Gold.PLP.part.hbond>
-1.0000

> <Gold.PLP.part.metal>
0.0000

> <Gold.PLP.part.buried>
-5.5924

> <Gold.PLP.part.nonpolar>
-34.8654

> <Gold.PLP.part.repulsive>
0.0584

> <Gold.PLP.ligand.clash>
0.0000

> <Gold.PLP.ligand.torsion>
0.8082

> <Gold.PLP.Chemscore.Hbond>
1.0000

> <Gold.PLP.Chemscore.CHOScore>
0.0000

> <Gold.PLP.Chemscore.Metal>
0.0000

> <Gold.Chemscore.Hbonds>
donor molecule, donor type, donor heavy atom, donor atom, acceptor molecule, acceptor atom, score
      P1  H  1105  4261       L1     4  1.00

> <Gold.PLP.Chemscore.Internal.Correction>
1.1208

#       Name:                xxxx
#       Creating user name   williammccorkindale
#       Creation time:       Sun May 22 19:49:22 2022


#       File generated by GOLD software.
#

@<TRIPOS>MOLECULE
xxxx|x0072|mol2|1|dock5
    26    26     1
SMALL
NO_CHARGES


@<TRIPOS>ATOM
      1 C01        -10.6397  19.4270  67.0086 C.3            1 LIG1101            0.0000
      2 S02         -9.9344  17.7574  67.0904 S.o2           1 LIG1101            0.0000
      3 O03         -8.6929  17.7264  67.8694 O.2            1 LIG1101            0.0000
      4 O04         -9.4269  17.3315  65.7972 O.2            1 LIG1101            0.0000
      5 N05        -11.0957  16.6579  67.6794 N.pl3          1 LIG1101            0.0000
      6 C06        -11.1323  16.4449  69.1033 C.3            1 LIG1101            0.0000
      7 C07        -11.5659  15.0506  69.5336 C.3            1 LIG1101            0.0000
      8 C08        -12.2072  15.2464  70.8986 C.ar           1 LIG1101            0.0000
      9 C09        -13.4683  14.7397  71.1838 C.ar           1 LIG1101            0.0000
     10 C10        -14.0039  14.9228  72.4478 C.ar           1 LIG1101            0.0000
     11 C11        -13.2744  15.5811  73.4252 C.ar           1 LIG1101            0.0000
     12 C12        -12.0087  16.0748  73.1379 C.ar           1 LIG1101            0.0000
     13 C13        -11.4809  15.9004  71.8742 C.ar           1 LIG1101            0.0000
     14 H1          -9.9248  20.1005  66.5381 H              1 LIG1101            0.0000
     15 H2         -11.5575  19.4051  66.4229 H              1 LIG1101            0.0000
     16 H3         -10.8601  19.7777  68.0158 H              1 LIG1101            0.0000
     17 H4         -11.7331  16.1747  67.0546 H              1 LIG1101            0.0000
     18 H5         -11.8279  17.1633  69.5346 H              1 LIG1101            0.0000
     19 H6         -10.1334  16.6250  69.4977 H              1 LIG1101            0.0000
     20 H7         -10.7057  14.3867  69.6058 H              1 LIG1101            0.0000
     21 H8         -12.2850  14.6376  68.8277 H              1 LIG1101            0.0000
     22 H9         -14.0307  14.2035  70.4208 H              1 LIG1101            0.0000
     23 H10        -15.0012  14.5486  72.6743 H              1 LIG1101            0.0000
     24 H11        -13.6948  15.7114  74.4214 H              1 LIG1101            0.0000
     25 H12        -11.4365  16.5960  73.9040 H              1 LIG1101            0.0000
     26 H13        -10.4864  16.2805  71.6455 H              1 LIG1101            0.0000
@<TRIPOS>BOND
    1    1    2 1     
    2    2    3 2     
    3    2    4 2     
    4    2    5 1     
    5    5    6 1     
    6    6    7 1     
    7    7    8 1     
    8    8    9 ar    
    9    9   10 ar    
   10   10   11 ar    
   11   11   12 ar    
   12    8   13 ar    
   13   12   13 ar    
   14    1   14 1     
   15    1   15 1     
   16    1   16 1     
   17    5   17 1     
   18    6   18 1     
   19    6   19 1     
   20    7   20 1     
   21    7   21 1     
   22    9   22 1     
   23   10   23 1     
   24   11   24 1     
   25   12   25 1     
   26   13   26 1     
@<TRIPOS>SUBSTRUCTURE
      1 LIG1101        1
@<TRIPOS>SET
LONE_PAIRS      STATIC     ATOMS    <user>   **** ""
2 3 4
DONOR_HYDROGENS      STATIC     ATOMS    <user>   **** ""
1 17
ATOM$BLUE        STATIC     ATOMS    COLORGROUP SYSTEM
2 3 4
ATOM$RED        STATIC     ATOMS    COLORGROUP SYSTEM
1 17
@<TRIPOS>COMMENT
> <Gold.Version>
2022.1.0

> <Gold.Id.Protein>
6LU7|6LU7_protein|mol2

> <Gold.Protein.RotatedTorsions>
[ 3973 1471 1470 1467 ] final   -4.96 input   60.00 | X-H torsion
[ 3372  414  413  411 ] final -100.14 input   60.00 | X-H torsion
[ 4268 1114 1113 1110 ] final    4.64 input   59.99 | X-H torsion
[ 4409  924  923  921 ] final   30.66 input   59.99 | X-H torsion
[ 4183 1244 1243 1241 ] final  -41.15 input   59.99 | X-H torsion
[ 3800  178  177  174 ] final -109.91 input   60.00 | X-H torsion
[ 3793  171  170  167 ] final  154.17 input   60.00 | X-H torsion
[ 3576  185  184  181 ] final   71.49 input   60.00 | X-H torsion
[ 3523  346  345  342 ] final    2.62 input   60.01 | X-H torsion
[ 3515  339  338  335 ] final  -52.58 input   60.00 | X-H torsion
[ 3663  154  153  150 ] final  143.71 input   60.00 | X-H torsion
[ 4280 1130 1129 1126 ] final   72.01 input   60.00 | X-H torsion

> <Gold.Protein.ActiveResidues>
 VAL20   THR21   CYS22   GLY23   THR24   THR25   THR26   LEU27   ASN28   PRO39  
 ARG40   HIS41   VAL42   CYS44   THR45   SER46   ASP48   MET49   LEU50   PRO52  
 TYR54   TYR118  ASN119  ILE136  GLY138  SER139  PHE140  LEU141  ASN142  GLY143 
 SER144  CYS145  GLY146  SER147  TYR161  HIS163  HIS164  MET165  GLU166  LEU167 
 PRO168  THR169  GLY170  VAL171  HIS172  ALA173  PHE181  PHE185  VAL186  ASP187 
 ARG188  GLN189  THR190  ALA191  GLN192  ALA193 

> <Gold.Protein.RotatedAtoms>
  -15.5130   17.6007   75.2060 H   0  0  0  0  0  0  0  0  0  0  0  0  # atno 3372 bound_to 414 
   -3.2705   20.4438   75.0111 H   0  0  0  0  0  0  0  0  0  0  0  0  # atno 3515 bound_to 339 
   -3.5766   17.9935   72.9330 H   0  0  0  0  0  0  0  0  0  0  0  0  # atno 3523 bound_to 346 
   -8.3244   26.7107   63.9480 H   0  0  0  0  0  0  0  0  0  0  0  0  # atno 3576 bound_to 185 
   -7.3029   29.9336   64.9836 H   0  0  0  0  0  0  0  0  0  0  0  0  # atno 3663 bound_to 154 
   -2.0099   23.5375   72.0473 H   0  0  0  0  0  0  0  0  0  0  0  0  # atno 3793 bound_to 171 
   -7.1943   22.2944   71.7229 H   0  0  0  0  0  0  0  0  0  0  0  0  # atno 3800 bound_to 178 
  -15.0338    8.2491   76.7962 H   0  0  0  0  0  0  0  0  0  0  0  0  # atno 3973 bound_to 1471
  -20.7187   13.2834   64.6510 H   0  0  0  0  0  0  0  0  0  0  0  0  # atno 4183 bound_to 1244
  -13.2816   16.4324   62.1288 H   0  0  0  0  0  0  0  0  0  0  0  0  # atno 4268 bound_to 1114
  -15.5832   19.5853   59.6496 H   0  0  0  0  0  0  0  0  0  0  0  0  # atno 4280 bound_to 1130
  -11.2694   15.1411   56.2316 H   0  0  0  0  0  0  0  0  0  0  0  0  # atno 4409 bound_to 924 
  -15.3142    8.9761   78.2247 LP  0  0  0  0  0  0  0  0  0  0  0  0  # atno 4696 bound_to 1471
  -15.6885    7.3998   78.0202 LP  0  0  0  0  0  0  0  0  0  0  0  0  # atno 4697 bound_to 1471
  -14.5305   17.0612   76.3857 LP  0  0  0  0  0  0  0  0  0  0  0  0  # atno 4731 bound_to 414 
  -14.0468   18.2770   75.4087 LP  0  0  0  0  0  0  0  0  0  0  0  0  # atno 4732 bound_to 414 
  -12.5227   15.3031   61.2363 LP  0  0  0  0  0  0  0  0  0  0  0  0  # atno 4733 bound_to 1114
  -14.1102   15.6039   60.9997 LP  0  0  0  0  0  0  0  0  0  0  0  0  # atno 4734 bound_to 1114
  -12.0795   15.4075   57.6175 LP  0  0  0  0  0  0  0  0  0  0  0  0  # atno 4763 bound_to 924 
  -10.5159   14.9383   57.6596 LP  0  0  0  0  0  0  0  0  0  0  0  0  # atno 4764 bound_to 924 
  -19.8526   13.7533   63.3561 LP  0  0  0  0  0  0  0  0  0  0  0  0  # atno 4771 bound_to 1244
  -20.7934   12.4212   63.2730 LP  0  0  0  0  0  0  0  0  0  0  0  0  # atno 4772 bound_to 1244
   -7.3620   23.7056   72.5157 LP  0  0  0  0  0  0  0  0  0  0  0  0  # atno 4775 bound_to 178 
   -6.0570   23.4479   71.5685 LP  0  0  0  0  0  0  0  0  0  0  0  0  # atno 4776 bound_to 178 
   -3.5342   24.0926   71.9201 LP  0  0  0  0  0  0  0  0  0  0  0  0  # atno 4779 bound_to 171 
   -2.4221   24.9383   72.7655 LP  0  0  0  0  0  0  0  0  0  0  0  0  # atno 4780 bound_to 171 
   -8.4754   25.1399   63.5509 LP  0  0  0  0  0  0  0  0  0  0  0  0  # atno 4783 bound_to 185 
   -7.1491   25.9765   63.0950 LP  0  0  0  0  0  0  0  0  0  0  0  0  # atno 4784 bound_to 185 
   -2.6174   16.7350   72.5530 LP  0  0  0  0  0  0  0  0  0  0  0  0  # atno 4785 bound_to 346 
   -1.9638   18.1258   73.1054 LP  0  0  0  0  0  0  0  0  0  0  0  0  # atno 4786 bound_to 346 
   -2.6603   21.8256   75.6163 LP  0  0  0  0  0  0  0  0  0  0  0  0  # atno 4787 bound_to 339 
   -3.5367   21.8511   74.2387 LP  0  0  0  0  0  0  0  0  0  0  0  0  # atno 4788 bound_to 339 
   -8.5736   28.9565   65.2637 LP  0  0  0  0  0  0  0  0  0  0  0  0  # atno 4797 bound_to 154 
   -7.0520   28.4025   65.4745 LP  0  0  0  0  0  0  0  0  0  0  0  0  # atno 4798 bound_to 154 

> <Gold.Score>
     Score     S(PLP)   S(hbond)     S(cho)   S(metal)  DE(clash)   DE(tors)     intcor
     42.70     -40.67       1.00       0.00       0.00       0.00       1.03       1.09

> <Gold.PLP.Fitness>
42.6965

> <Gold.PLP.PLP>
-40.6734

> <Gold.PLP.part.hbond>
-1.0000

> <Gold.PLP.part.metal>
0.0000

> <Gold.PLP.part.buried>
-5.0326

> <Gold.PLP.part.nonpolar>
-35.3875

> <Gold.PLP.part.repulsive>
0.0155

> <Gold.PLP.ligand.clash>
0.0000

> <Gold.PLP.ligand.torsion>
1.0316

> <Gold.PLP.Chemscore.Hbond>
1.0000

> <Gold.PLP.Chemscore.CHOScore>
0.0000

> <Gold.PLP.Chemscore.Metal>
0.0000

> <Gold.Chemscore.Hbonds>
donor molecule, donor type, donor heavy atom, donor atom, acceptor molecule, acceptor atom, score
      P1  H  1105  4261       L1     4  1.00

> <Gold.PLP.Chemscore.Internal.Correction>
1.0863

#       Name:                xxxx
#       Creating user name   williammccorkindale
#       Creation time:       Sun May 22 19:49:22 2022


#       File generated by GOLD software.
#

@<TRIPOS>MOLECULE
xxxx|x0072|mol2|1|dock3
    26    26     1
SMALL
NO_CHARGES


@<TRIPOS>ATOM
      1 C01        -10.5132  19.7819  66.9906 C.3            1 LIG1101            0.0000
      2 S02        -10.0503  18.0325  67.1225 S.o2           1 LIG1101            0.0000
      3 O03         -8.7152  17.8631  67.7037 O.2            1 LIG1101            0.0000
      4 O04         -9.8281  17.4419  65.8136 O.2            1 LIG1101            0.0000
      5 N05        -11.2444  17.1726  67.9822 N.pl3          1 LIG1101            0.0000
      6 C06        -10.8922  16.7004  69.2964 C.3            1 LIG1101            0.0000
      7 C07        -11.1238  15.2138  69.5286 C.3            1 LIG1101            0.0000
      8 C08        -11.8750  15.1386  70.8488 C.ar           1 LIG1101            0.0000
      9 C09        -11.3951  15.7680  71.9899 C.ar           1 LIG1101            0.0000
     10 C10        -12.1239  15.6914  73.1651 C.ar           1 LIG1101            0.0000
     11 C11        -13.3342  15.0164  73.1920 C.ar           1 LIG1101            0.0000
     12 C12        -13.8149  14.3994  72.0446 C.ar           1 LIG1101            0.0000
     13 C13        -13.0818  14.4681  70.8769 C.ar           1 LIG1101            0.0000
     14 H1          -9.7964  20.3002  66.3554 H              1 LIG1101            0.0000
     15 H2         -11.5082  19.8622  66.5555 H              1 LIG1101            0.0000
     16 H3         -10.5128  20.2332  67.9817 H              1 LIG1101            0.0000
     17 H4         -12.1629  17.0010  67.5858 H              1 LIG1101            0.0000
     18 H5         -11.4852  17.2525  70.0240 H              1 LIG1101            0.0000
     19 H6          -9.8352  16.9070  69.4577 H              1 LIG1101            0.0000
     20 H7         -10.1749  14.6838  69.5965 H              1 LIG1101            0.0000
     21 H8         -11.7205  14.7883  68.7231 H              1 LIG1101            0.0000
     22 H9         -10.4548  16.3166  71.9609 H              1 LIG1101            0.0000
     23 H10        -11.7450  16.1628  74.0707 H              1 LIG1101            0.0000
     24 H11        -13.9096  14.9698  74.1154 H              1 LIG1101            0.0000
     25 H12        -14.7637  13.8651  72.0659 H              1 LIG1101            0.0000
     26 H13        -13.4573  13.9909  69.9729 H              1 LIG1101            0.0000
@<TRIPOS>BOND
    1    1    2 1     
    2    2    3 2     
    3    2    4 2     
    4    2    5 1     
    5    5    6 1     
    6    6    7 1     
    7    7    8 1     
    8    8    9 ar    
    9    9   10 ar    
   10   10   11 ar    
   11   11   12 ar    
   12    8   13 ar    
   13   12   13 ar    
   14    1   14 1     
   15    1   15 1     
   16    1   16 1     
   17    5   17 1     
   18    6   18 1     
   19    6   19 1     
   20    7   20 1     
   21    7   21 1     
   22    9   22 1     
   23   10   23 1     
   24   11   24 1     
   25   12   25 1     
   26   13   26 1     
@<TRIPOS>SUBSTRUCTURE
      1 LIG1101        1
@<TRIPOS>SET
LONE_PAIRS      STATIC     ATOMS    <user>   **** ""
2 3 4
DONOR_HYDROGENS      STATIC     ATOMS    <user>   **** ""
1 17
ATOM$BLUE        STATIC     ATOMS    COLORGROUP SYSTEM
2 3 4
ATOM$RED        STATIC     ATOMS    COLORGROUP SYSTEM
1 17
@<TRIPOS>COMMENT
> <Gold.Version>
2022.1.0

> <Gold.Id.Protein>
6LU7|6LU7_protein|mol2

> <Gold.Protein.RotatedTorsions>
[ 3973 1471 1470 1467 ] final  -52.37 input   60.00 | X-H torsion
[ 3372  414  413  411 ] final   84.88 input   60.00 | X-H torsion
[ 4268 1114 1113 1110 ] final -115.74 input   59.99 | X-H torsion
[ 4409  924  923  921 ] final   10.04 input   59.99 | X-H torsion
[ 4183 1244 1243 1241 ] final   83.98 input   59.99 | X-H torsion
[ 3800  178  177  174 ] final   83.97 input   60.00 | X-H torsion
[ 3793  171  170  167 ] final -112.69 input   60.00 | X-H torsion
[ 3576  185  184  181 ] final  -97.92 input   60.00 | X-H torsion
[ 3523  346  345  342 ] final  170.92 input   60.01 | X-H torsion
[ 3515  339  338  335 ] final  126.55 input   60.00 | X-H torsion
[ 3663  154  153  150 ] final   94.50 input   60.00 | X-H torsion
[ 4280 1130 1129 1126 ] final  129.79 input   60.00 | X-H torsion

> <Gold.Protein.ActiveResidues>
 VAL20   THR21   CYS22   GLY23   THR24   THR25   THR26   LEU27   ASN28   PRO39  
 ARG40   HIS41   VAL42   CYS44   THR45   SER46   ASP48   MET49   LEU50   PRO52  
 TYR54   TYR118  ASN119  ILE136  GLY138  SER139  PHE140  LEU141  ASN142  GLY143 
 SER144  CYS145  GLY146  SER147  TYR161  HIS163  HIS164  MET165  GLU166  LEU167 
 PRO168  THR169  GLY170  VAL171  HIS172  ALA173  PHE181  PHE185  VAL186  ASP187 
 ARG188  GLN189  THR190  ALA191  GLN192  ALA193 

> <Gold.Protein.RotatedAtoms>
  -13.9130   17.6326   76.1747 H   0  0  0  0  0  0  0  0  0  0  0  0  # atno 3372 bound_to 414 
   -3.0520   22.2993   74.8896 H   0  0  0  0  0  0  0  0  0  0  0  0  # atno 3515 bound_to 339 
   -1.8080   17.4130   72.8635 H   0  0  0  0  0  0  0  0  0  0  0  0  # atno 3523 bound_to 346 
   -7.7872   25.1019   63.1743 H   0  0  0  0  0  0  0  0  0  0  0  0  # atno 3576 bound_to 185 
   -8.0809   29.8851   64.9815 H   0  0  0  0  0  0  0  0  0  0  0  0  # atno 3663 bound_to 154 
   -2.0521   24.7083   72.7372 H   0  0  0  0  0  0  0  0  0  0  0  0  # atno 3793 bound_to 171 
   -6.7398   24.0119   72.2692 H   0  0  0  0  0  0  0  0  0  0  0  0  # atno 3800 bound_to 178 
  -14.9759    8.9011   77.1678 H   0  0  0  0  0  0  0  0  0  0  0  0  # atno 3973 bound_to 1471
  -20.7471   12.4547   63.2109 H   0  0  0  0  0  0  0  0  0  0  0  0  # atno 4183 bound_to 1244
  -12.5309   15.3049   61.2319 H   0  0  0  0  0  0  0  0  0  0  0  0  # atno 4268 bound_to 1114
  -15.5712   18.7774   59.2430 H   0  0  0  0  0  0  0  0  0  0  0  0  # atno 4280 bound_to 1130
  -11.5862   15.2373   56.2830 H   0  0  0  0  0  0  0  0  0  0  0  0  # atno 4409 bound_to 924 
  -15.6026    8.3667   78.5713 LP  0  0  0  0  0  0  0  0  0  0  0  0  # atno 4696 bound_to 1471
  -15.4584    7.3526   77.2995 LP  0  0  0  0  0  0  0  0  0  0  0  0  # atno 4697 bound_to 1471
  -14.7912   18.2622   74.9580 LP  0  0  0  0  0  0  0  0  0  0  0  0  # atno 4731 bound_to 414 
  -15.3973   17.0440   75.8609 LP  0  0  0  0  0  0  0  0  0  0  0  0  # atno 4732 bound_to 414 
  -14.1132   15.6083   61.0032 LP  0  0  0  0  0  0  0  0  0  0  0  0  # atno 4733 bound_to 1114
  -13.2759   16.4342   62.1361 LP  0  0  0  0  0  0  0  0  0  0  0  0  # atno 4734 bound_to 1114
  -11.8756   15.3510   57.8803 LP  0  0  0  0  0  0  0  0  0  0  0  0  # atno 4763 bound_to 924 
  -10.4008   14.8980   57.3450 LP  0  0  0  0  0  0  0  0  0  0  0  0  # atno 4764 bound_to 924 
  -20.7663   13.2137   64.6502 LP  0  0  0  0  0  0  0  0  0  0  0  0  # atno 4771 bound_to 1244
  -19.8511   13.7954   63.4293 LP  0  0  0  0  0  0  0  0  0  0  0  0  # atno 4772 bound_to 1244
   -6.2376   22.7655   71.3514 LP  0  0  0  0  0  0  0  0  0  0  0  0  # atno 4775 bound_to 178 
   -7.6391   22.6584   72.1826 LP  0  0  0  0  0  0  0  0  0  0  0  0  # atno 4776 bound_to 178 
   -2.3660   23.3818   71.8485 LP  0  0  0  0  0  0  0  0  0  0  0  0  # atno 4779 bound_to 171 
   -3.5478   24.4698   72.1423 LP  0  0  0  0  0  0  0  0  0  0  0  0  # atno 4780 bound_to 171 
   -7.3762   26.6567   63.4222 LP  0  0  0  0  0  0  0  0  0  0  0  0  # atno 4783 bound_to 185 
   -8.7893   26.0801   64.0031 LP  0  0  0  0  0  0  0  0  0  0  0  0  # atno 4784 bound_to 185 
   -3.0125   18.4700   73.1466 LP  0  0  0  0  0  0  0  0  0  0  0  0  # atno 4785 bound_to 346 
   -3.3498   16.9754   72.5818 LP  0  0  0  0  0  0  0  0  0  0  0  0  # atno 4786 bound_to 346 
   -3.6482   20.9045   74.3007 LP  0  0  0  0  0  0  0  0  0  0  0  0  # atno 4787 bound_to 339 
   -2.7689   20.9035   75.6767 LP  0  0  0  0  0  0  0  0  0  0  0  0  # atno 4788 bound_to 339 
   -8.1421   28.3345   65.4715 LP  0  0  0  0  0  0  0  0  0  0  0  0  # atno 4797 bound_to 154 
   -6.7000   29.0734   65.2688 LP  0  0  0  0  0  0  0  0  0  0  0  0  # atno 4798 bound_to 154 

> <Gold.Score>
     Score     S(PLP)   S(hbond)     S(cho)   S(metal)  DE(clash)   DE(tors)     intcor
     42.31     -40.23       1.00       0.00       0.00       0.00       1.01       1.10

> <Gold.PLP.Fitness>
42.3135

> <Gold.PLP.PLP>
-40.2315

> <Gold.PLP.part.hbond>
-1.6137

> <Gold.PLP.part.metal>
0.0000

> <Gold.PLP.part.buried>
-4.9986

> <Gold.PLP.part.nonpolar>
-34.9517

> <Gold.PLP.part.repulsive>
0.0093

> <Gold.PLP.ligand.clash>
0.0000

> <Gold.PLP.ligand.torsion>
1.0071

> <Gold.PLP.Chemscore.Hbond>
1.0000

> <Gold.PLP.Chemscore.CHOScore>
0.0000

> <Gold.PLP.Chemscore.Metal>
0.0000

> <Gold.Chemscore.Hbonds>
donor molecule, donor type, donor heavy atom, donor atom, acceptor molecule, acceptor atom, score
      P1  H  1105  4261       L1     4  1.00

> <Gold.PLP.Chemscore.Internal.Correction>
1.0962

#       Name:                xxxx
#       Creating user name   williammccorkindale
#       Creation time:       Sun May 22 19:49:22 2022


#       File generated by GOLD software.
#

@<TRIPOS>MOLECULE
xxxx|x0072|mol2|1|dock4
    26    26     1
SMALL
NO_CHARGES


@<TRIPOS>ATOM
      1 C01        -10.4878  19.5555  67.0779 C.3            1 LIG1101            0.0000
      2 S02         -9.8748  17.8512  67.1838 S.o2           1 LIG1101            0.0000
      3 O03         -8.6875  17.7497  68.0376 O.2            1 LIG1101            0.0000
      4 O04         -9.3101  17.4105  65.9197 O.2            1 LIG1101            0.0000
      5 N05        -11.1251  16.8081  67.6872 N.pl3          1 LIG1101            0.0000
      6 C06        -11.1419  16.4295  69.0766 C.3            1 LIG1101            0.0000
      7 C07        -11.7444  15.0610  69.3626 C.3            1 LIG1101            0.0000
      8 C08        -12.2210  15.1394  70.8047 C.ar           1 LIG1101            0.0000
      9 C09        -13.4979  14.7307  71.1668 C.ar           1 LIG1101            0.0000
     10 C10        -13.8815  14.7990  72.4958 C.ar           1 LIG1101            0.0000
     11 C11        -12.9879  15.2446  73.4571 C.ar           1 LIG1101            0.0000
     12 C12        -11.7083  15.6403  73.0908 C.ar           1 LIG1101            0.0000
     13 C13        -11.3314  15.5813  71.7640 C.ar           1 LIG1101            0.0000
     14 H1          -9.7116  20.1952  66.6602 H              1 LIG1101            0.0000
     15 H2         -11.3672  19.5858  66.4364 H              1 LIG1101            0.0000
     16 H3         -10.7524  19.9087  68.0735 H              1 LIG1101            0.0000
     17 H4         -11.8265  16.4688  67.0368 H              1 LIG1101            0.0000
     18 H5         -11.7195  17.1738  69.6227 H              1 LIG1101            0.0000
     19 H6         -10.1151  16.4291  69.4392 H              1 LIG1101            0.0000
     20 H7         -10.9939  14.2802  69.2487 H              1 LIG1101            0.0000
     21 H8         -12.5798  14.8622  68.6929 H              1 LIG1101            0.0000
     22 H9         -14.1909  14.3600  70.4130 H              1 LIG1101            0.0000
     23 H10        -14.8880  14.5018  72.7864 H              1 LIG1101            0.0000
     24 H11        -13.2902  15.2845  74.5026 H              1 LIG1101            0.0000
     25 H12        -11.0070  15.9947  73.8448 H              1 LIG1101            0.0000
     26 H13        -10.3272  15.8849  71.4723 H              1 LIG1101            0.0000
@<TRIPOS>BOND
    1    1    2 1     
    2    2    3 2     
    3    2    4 2     
    4    2    5 1     
    5    5    6 1     
    6    6    7 1     
    7    7    8 1     
    8    8    9 ar    
    9    9   10 ar    
   10   10   11 ar    
   11   11   12 ar    
   12    8   13 ar    
   13   12   13 ar    
   14    1   14 1     
   15    1   15 1     
   16    1   16 1     
   17    5   17 1     
   18    6   18 1     
   19    6   19 1     
   20    7   20 1     
   21    7   21 1     
   22    9   22 1     
   23   10   23 1     
   24   11   24 1     
   25   12   25 1     
   26   13   26 1     
@<TRIPOS>SUBSTRUCTURE
      1 LIG1101        1
@<TRIPOS>SET
LONE_PAIRS      STATIC     ATOMS    <user>   **** ""
2 3 4
DONOR_HYDROGENS      STATIC     ATOMS    <user>   **** ""
1 17
ATOM$BLUE        STATIC     ATOMS    COLORGROUP SYSTEM
2 3 4
ATOM$RED        STATIC     ATOMS    COLORGROUP SYSTEM
1 17
@<TRIPOS>COMMENT
> <Gold.Version>
2022.1.0

> <Gold.Id.Protein>
6LU7|6LU7_protein|mol2

> <Gold.Protein.RotatedTorsions>
[ 3973 1471 1470 1467 ] final    7.93 input   60.00 | X-H torsion
[ 3372  414  413  411 ] final -150.13 input   60.00 | X-H torsion
[ 4268 1114 1113 1110 ] final -167.34 input   59.99 | X-H torsion
[ 4409  924  923  921 ] final   43.83 input   59.99 | X-H torsion
[ 4183 1244 1243 1241 ] final  -32.43 input   59.99 | X-H torsion
[ 3800  178  177  174 ] final   53.92 input   60.00 | X-H torsion
[ 3793  171  170  167 ] final  -71.51 input   60.00 | X-H torsion
[ 3576  185  184  181 ] final  115.99 input   60.00 | X-H torsion
[ 3523  346  345  342 ] final   23.67 input   60.01 | X-H torsion
[ 3515  339  338  335 ] final   50.53 input   60.00 | X-H torsion
[ 3663  154  153  150 ] final   88.78 input   60.00 | X-H torsion
[ 4280 1130 1129 1126 ] final -121.18 input   60.00 | X-H torsion

> <Gold.Protein.ActiveResidues>
 VAL20   THR21   CYS22   GLY23   THR24   THR25   THR26   LEU27   ASN28   PRO39  
 ARG40   HIS41   VAL42   CYS44   THR45   SER46   ASP48   MET49   LEU50   PRO52  
 TYR54   TYR118  ASN119  ILE136  GLY138  SER139  PHE140  LEU141  ASN142  GLY143 
 SER144  CYS145  GLY146  SER147  TYR161  HIS163  HIS164  MET165  GLU166  LEU167 
 PRO168  THR169  GLY170  VAL171  HIS172  ALA173  PHE181  PHE185  VAL186  ASP187 
 ARG188  GLN189  THR190  ALA191  GLN192  ALA193 

> <Gold.Protein.RotatedAtoms>
  -15.4348   17.0835   75.7995 H   0  0  0  0  0  0  0  0  0  0  0  0  # atno 3372 bound_to 414 
   -3.6211   21.5963   74.1747 H   0  0  0  0  0  0  0  0  0  0  0  0  # atno 3515 bound_to 339 
   -3.3849   18.2548   73.0423 H   0  0  0  0  0  0  0  0  0  0  0  0  # atno 3523 bound_to 346 
   -7.6937   26.8270   63.6461 H   0  0  0  0  0  0  0  0  0  0  0  0  # atno 3576 bound_to 185 
   -8.1612   29.8388   64.9944 H   0  0  0  0  0  0  0  0  0  0  0  0  # atno 3663 bound_to 154 
   -2.6470   24.9904   72.7258 H   0  0  0  0  0  0  0  0  0  0  0  0  # atno 3793 bound_to 171 
   -6.3553   23.9265   71.9856 H   0  0  0  0  0  0  0  0  0  0  0  0  # atno 3800 bound_to 178 
  -15.0895    8.0465   76.7923 H   0  0  0  0  0  0  0  0  0  0  0  0  # atno 3973 bound_to 1471
  -20.7975   13.1661   64.6335 H   0  0  0  0  0  0  0  0  0  0  0  0  # atno 4183 bound_to 1244
  -13.2001   15.1148   60.8076 H   0  0  0  0  0  0  0  0  0  0  0  0  # atno 4268 bound_to 1114
  -16.3062   19.2070   57.9782 H   0  0  0  0  0  0  0  0  0  0  0  0  # atno 4280 bound_to 1130
  -11.0656   15.0804   56.2617 H   0  0  0  0  0  0  0  0  0  0  0  0  # atno 4409 bound_to 924 
  -15.2307    9.0663   78.0525 LP  0  0  0  0  0  0  0  0  0  0  0  0  # atno 4696 bound_to 1471
  -15.7159    7.5137   78.1965 LP  0  0  0  0  0  0  0  0  0  0  0  0  # atno 4697 bound_to 1471
  -13.9400   17.5698   76.2201 LP  0  0  0  0  0  0  0  0  0  0  0  0  # atno 4731 bound_to 414 
  -14.7161   18.2893   74.9765 LP  0  0  0  0  0  0  0  0  0  0  0  0  # atno 4732 bound_to 414 
  -14.1463   16.1869   61.5843 LP  0  0  0  0  0  0  0  0  0  0  0  0  # atno 4733 bound_to 1114
  -12.5688   16.0472   61.9824 LP  0  0  0  0  0  0  0  0  0  0  0  0  # atno 4734 bound_to 1114
  -12.1579   15.4275   57.4169 LP  0  0  0  0  0  0  0  0  0  0  0  0  # atno 4763 bound_to 924 
  -10.6428   14.9795   57.8298 LP  0  0  0  0  0  0  0  0  0  0  0  0  # atno 4764 bound_to 924 
  -19.8530   13.8218   63.4820 LP  0  0  0  0  0  0  0  0  0  0  0  0  # atno 4771 bound_to 1244
  -20.7137   12.4708   63.1647 LP  0  0  0  0  0  0  0  0  0  0  0  0  # atno 4772 bound_to 1244
   -6.5834   22.4240   71.4037 LP  0  0  0  0  0  0  0  0  0  0  0  0  # atno 4775 bound_to 178 
   -7.6806   23.0859   72.4160 LP  0  0  0  0  0  0  0  0  0  0  0  0  # atno 4776 bound_to 178 
   -1.8672   23.6728   72.1747 LP  0  0  0  0  0  0  0  0  0  0  0  0  # atno 4779 bound_to 171 
   -3.4474   23.8947   71.8276 LP  0  0  0  0  0  0  0  0  0  0  0  0  # atno 4780 bound_to 171 
   -8.8115   25.6701   63.8909 LP  0  0  0  0  0  0  0  0  0  0  0  0  # atno 4783 bound_to 185 
   -7.4482   25.3293   63.0591 LP  0  0  0  0  0  0  0  0  0  0  0  0  # atno 4784 bound_to 185 
   -2.9600   16.7673   72.5376 LP  0  0  0  0  0  0  0  0  0  0  0  0  # atno 4785 bound_to 346 
   -1.8143   17.8303   73.0108 LP  0  0  0  0  0  0  0  0  0  0  0  0  # atno 4786 bound_to 346 
   -3.1174   20.4729   75.2388 LP  0  0  0  0  0  0  0  0  0  0  0  0  # atno 4787 bound_to 339 
   -2.7265   22.0431   75.4585 LP  0  0  0  0  0  0  0  0  0  0  0  0  # atno 4788 bound_to 339 
   -8.0598   28.2913   65.4871 LP  0  0  0  0  0  0  0  0  0  0  0  0  # atno 4797 bound_to 154 
   -6.7014   29.1632   65.2402 LP  0  0  0  0  0  0  0  0  0  0  0  0  # atno 4798 bound_to 154 

> <Gold.Score>
     Score     S(PLP)   S(hbond)     S(cho)   S(metal)  DE(clash)   DE(tors)     intcor
     42.31     -40.28       1.00       0.00       0.00       0.00       1.03       1.09

> <Gold.PLP.Fitness>
42.3076

> <Gold.PLP.PLP>
-40.2794

> <Gold.PLP.part.hbond>
-1.0000

> <Gold.PLP.part.metal>
0.0000

> <Gold.PLP.part.buried>
-4.9747

> <Gold.PLP.part.nonpolar>
-35.4623

> <Gold.PLP.part.repulsive>
0.0058

> <Gold.PLP.ligand.clash>
0.0000

> <Gold.PLP.ligand.torsion>
1.0291

> <Gold.PLP.Chemscore.Hbond>
1.0000

> <Gold.PLP.Chemscore.CHOScore>
0.0000

> <Gold.PLP.Chemscore.Metal>
0.0000

> <Gold.Chemscore.Hbonds>
donor molecule, donor type, donor heavy atom, donor atom, acceptor molecule, acceptor atom, score
      P1  H  1105  4261       L1     4  1.00

> <Gold.PLP.Chemscore.Internal.Correction>
1.0863

#       Name:                xxxx
#       Creating user name   williammccorkindale
#       Creation time:       Sun May 22 19:49:22 2022


#       File generated by GOLD software.
#

@<TRIPOS>MOLECULE
xxxx|x0072|mol2|1|dock2
    26    26     1
SMALL
NO_CHARGES


@<TRIPOS>ATOM
      1 C01        -11.3761  15.6055  65.3694 C.3            1 LIG1101            0.0000
      2 S02         -9.9410  16.0055  66.4049 S.o2           1 LIG1101            0.0000
      3 O03         -9.1225  17.0699  65.8166 O.2            1 LIG1101            0.0000
      4 O04         -8.9725  14.9223  66.4115 O.2            1 LIG1101            0.0000
      5 N05        -10.4462  16.3784  67.9893 N.pl3          1 LIG1101            0.0000
      6 C06        -11.6946  15.8107  68.4288 C.3            1 LIG1101            0.0000
      7 C07        -11.5662  14.5445  69.2641 C.3            1 LIG1101            0.0000
      8 C08        -12.0712  14.9358  70.6442 C.ar           1 LIG1101            0.0000
      9 C09        -11.4201  15.8971  71.4060 C.ar           1 LIG1101            0.0000
     10 C10        -11.9285  16.2381  72.6483 C.ar           1 LIG1101            0.0000
     11 C11        -13.0919  15.6444  73.1121 C.ar           1 LIG1101            0.0000
     12 C12        -13.7454  14.6927  72.3406 C.ar           1 LIG1101            0.0000
     13 C13        -13.2312  14.3466  71.1070 C.ar           1 LIG1101            0.0000
     14 H1         -11.0356  15.2721  64.3902 H              1 LIG1101            0.0000
     15 H2         -11.9548  14.8131  65.8416 H              1 LIG1101            0.0000
     16 H3         -11.9992  16.4912  65.2548 H              1 LIG1101            0.0000
     17 H4          -9.8920  16.9741  68.5961 H              1 LIG1101            0.0000
     18 H5         -12.2878  15.5748  67.5466 H              1 LIG1101            0.0000
     19 H6         -12.2141  16.5584  69.0263 H              1 LIG1101            0.0000
     20 H7         -10.5274  14.2212  69.3133 H              1 LIG1101            0.0000
     21 H8         -12.1757  13.7452  68.8451 H              1 LIG1101            0.0000
     22 H9         -10.5184  16.3784  71.0301 H              1 LIG1101            0.0000
     23 H10        -11.4126  16.9747  73.2626 H              1 LIG1101            0.0000
     24 H11        -13.4946  15.9252  74.0842 H              1 LIG1101            0.0000
     25 H12        -14.6572  14.2225  72.7060 H              1 LIG1101            0.0000
     26 H13        -13.7431  13.6051  70.4955 H              1 LIG1101            0.0000
@<TRIPOS>BOND
    1    1    2 1     
    2    2    3 2     
    3    2    4 2     
    4    2    5 1     
    5    5    6 1     
    6    6    7 1     
    7    7    8 1     
    8    8    9 ar    
    9    9   10 ar    
   10   10   11 ar    
   11   11   12 ar    
   12    8   13 ar    
   13   12   13 ar    
   14    1   14 1     
   15    1   15 1     
   16    1   16 1     
   17    5   17 1     
   18    6   18 1     
   19    6   19 1     
   20    7   20 1     
   21    7   21 1     
   22    9   22 1     
   23   10   23 1     
   24   11   24 1     
   25   12   25 1     
   26   13   26 1     
@<TRIPOS>SUBSTRUCTURE
      1 LIG1101        1
@<TRIPOS>SET
LONE_PAIRS      STATIC     ATOMS    <user>   **** ""
2 3 4
DONOR_HYDROGENS      STATIC     ATOMS    <user>   **** ""
1 17
ATOM$BLUE        STATIC     ATOMS    COLORGROUP SYSTEM
2 3 4
ATOM$RED        STATIC     ATOMS    COLORGROUP SYSTEM
1 17
@<TRIPOS>COMMENT
> <Gold.Version>
2022.1.0

> <Gold.Id.Protein>
6LU7|6LU7_protein|mol2

> <Gold.Protein.RotatedTorsions>
[ 3973 1471 1470 1467 ] final   64.52 input   60.00 | X-H torsion
[ 3372  414  413  411 ] final  146.31 input   60.00 | X-H torsion
[ 4268 1114 1113 1110 ] final  -25.31 input   59.99 | X-H torsion
[ 4409  924  923  921 ] final   -6.35 input   59.99 | X-H torsion
[ 4183 1244 1243 1241 ] final   90.10 input   59.99 | X-H torsion
[ 3800  178  177  174 ] final   25.76 input   60.00 | X-H torsion
[ 3793  171  170  167 ] final   30.67 input   60.00 | X-H torsion
[ 3576  185  184  181 ] final  161.73 input   60.00 | X-H torsion
[ 3523  346  345  342 ] final   14.59 input   60.01 | X-H torsion
[ 3515  339  338  335 ] final -146.33 input   60.00 | X-H torsion
[ 3663  154  153  150 ] final -157.93 input   60.00 | X-H torsion
[ 4280 1130 1129 1126 ] final   26.92 input   60.00 | X-H torsion

> <Gold.Protein.ActiveResidues>
 VAL20   THR21   CYS22   GLY23   THR24   THR25   THR26   LEU27   ASN28   PRO39  
 ARG40   HIS41   VAL42   CYS44   THR45   SER46   ASP48   MET49   LEU50   PRO52  
 TYR54   TYR118  ASN119  ILE136  GLY138  SER139  PHE140  LEU141  ASN142  GLY143 
 SER144  CYS145  GLY146  SER147  TYR161  HIS163  HIS164  MET165  GLU166  LEU167 
 PRO168  THR169  GLY170  VAL171  HIS172  ALA173  PHE181  PHE185  VAL186  ASP187 
 ARG188  GLN189  THR190  ALA191  GLN192  ALA193 

> <Gold.Protein.RotatedAtoms>
  -14.6285   17.0268   76.3642 H   0  0  0  0  0  0  0  0  0  0  0  0  # atno 3372 bound_to 414 
   -2.6486   21.4174   75.7409 H   0  0  0  0  0  0  0  0  0  0  0  0  # atno 3515 bound_to 339 
   -3.4802   18.1507   72.9972 H   0  0  0  0  0  0  0  0  0  0  0  0  # atno 3523 bound_to 346 
   -7.2213   26.4202   63.2706 H   0  0  0  0  0  0  0  0  0  0  0  0  # atno 3576 bound_to 185 
   -6.7214   29.2669   65.2091 H   0  0  0  0  0  0  0  0  0  0  0  0  # atno 3663 bound_to 154 
   -3.5403   24.1439   71.9462 H   0  0  0  0  0  0  0  0  0  0  0  0  # atno 3793 bound_to 171 
   -6.1197   23.6552   71.7055 H   0  0  0  0  0  0  0  0  0  0  0  0  # atno 3800 bound_to 178 
  -15.4358    7.3761   77.2595 H   0  0  0  0  0  0  0  0  0  0  0  0  # atno 3973 bound_to 1471
  -20.6895   12.4943   63.1394 H   0  0  0  0  0  0  0  0  0  0  0  0  # atno 4183 bound_to 1244
  -12.8303   16.2595   62.1066 H   0  0  0  0  0  0  0  0  0  0  0  0  # atno 4268 bound_to 1114
  -15.8625   20.2022   59.4112 H   0  0  0  0  0  0  0  0  0  0  0  0  # atno 4280 bound_to 1130
  -11.8126   15.3075   56.4055 H   0  0  0  0  0  0  0  0  0  0  0  0  # atno 4409 bound_to 924 
  -14.9805    8.9374   77.2041 LP  0  0  0  0  0  0  0  0  0  0  0  0  # atno 4696 bound_to 1471
  -15.6174    8.3177   78.5742 LP  0  0  0  0  0  0  0  0  0  0  0  0  # atno 4697 bound_to 1471
  -13.9869   18.2381   75.4872 LP  0  0  0  0  0  0  0  0  0  0  0  0  # atno 4731 bound_to 414 
  -15.4812   17.6781   75.1408 LP  0  0  0  0  0  0  0  0  0  0  0  0  # atno 4732 bound_to 414 
  -12.8660   15.1272   60.9385 LP  0  0  0  0  0  0  0  0  0  0  0  0  # atno 4733 bound_to 1114
  -14.2216   15.9539   61.3199 LP  0  0  0  0  0  0  0  0  0  0  0  0  # atno 4734 bound_to 1114
  -11.6582   15.2883   58.0253 LP  0  0  0  0  0  0  0  0  0  0  0  0  # atno 4763 bound_to 924 
  -10.3902   14.8899   57.0766 LP  0  0  0  0  0  0  0  0  0  0  0  0  # atno 4764 bound_to 924 
  -20.8197   13.1304   64.6315 LP  0  0  0  0  0  0  0  0  0  0  0  0  # atno 4771 bound_to 1244
  -19.8557   13.8389   63.5200 LP  0  0  0  0  0  0  0  0  0  0  0  0  # atno 4772 bound_to 1244
   -6.9799   22.2793   71.5834 LP  0  0  0  0  0  0  0  0  0  0  0  0  # atno 4775 bound_to 178 
   -7.5213   23.5038   72.5183 LP  0  0  0  0  0  0  0  0  0  0  0  0  # atno 4776 bound_to 178 
   -2.3686   24.9170   72.7691 LP  0  0  0  0  0  0  0  0  0  0  0  0  # atno 4779 bound_to 171 
   -2.0463   23.5031   72.0184 LP  0  0  0  0  0  0  0  0  0  0  0  0  # atno 4780 bound_to 171 
   -8.6626   26.3752   64.0246 LP  0  0  0  0  0  0  0  0  0  0  0  0  # atno 4783 bound_to 185 
   -8.0728   25.0339   63.3037 LP  0  0  0  0  0  0  0  0  0  0  0  0  # atno 4784 bound_to 185 
   -2.8135   16.7388   72.5389 LP  0  0  0  0  0  0  0  0  0  0  0  0  # atno 4785 bound_to 346 
   -1.8648   17.9637   73.0548 LP  0  0  0  0  0  0  0  0  0  0  0  0  # atno 4786 bound_to 346 
   -3.3418   22.1563   74.4674 LP  0  0  0  0  0  0  0  0  0  0  0  0  # atno 4787 bound_to 339 
   -3.4814   20.5398   74.6526 LP  0  0  0  0  0  0  0  0  0  0  0  0  # atno 4788 bound_to 339 
   -8.2528   29.7795   65.0088 LP  0  0  0  0  0  0  0  0  0  0  0  0  # atno 4797 bound_to 154 
   -7.9584   28.2510   65.5023 LP  0  0  0  0  0  0  0  0  0  0  0  0  # atno 4798 bound_to 154 

> <Gold.Score>
     Score     S(PLP)   S(hbond)     S(cho)   S(metal)  DE(clash)   DE(tors)     intcor
     40.91     -38.96       1.00       0.00       0.00       0.00       1.07       1.10

> <Gold.PLP.Fitness>
40.9138

> <Gold.PLP.PLP>
-38.9615

> <Gold.PLP.part.hbond>
-1.0000

> <Gold.PLP.part.metal>
0.0000

> <Gold.PLP.part.buried>
-5.9050

> <Gold.PLP.part.nonpolar>
-32.8330

> <Gold.PLP.part.repulsive>
0.1249

> <Gold.PLP.ligand.clash>
0.0000

> <Gold.PLP.ligand.torsion>
1.0719

> <Gold.PLP.Chemscore.Hbond>
1.0000

> <Gold.PLP.Chemscore.CHOScore>
0.0000

> <Gold.PLP.Chemscore.Metal>
0.0000

> <Gold.Chemscore.Hbonds>
donor molecule, donor type, donor heavy atom, donor atom, acceptor molecule, acceptor atom, score
      P1  H  1105  4261       L1     3  1.00

> <Gold.PLP.Chemscore.Internal.Correction>
1.0962

