#       Name:                GA Fitting Points
#       Creating user name   williammccorkindale
#       Creation time:       Sun May 22 19:49:20 2022


#       Fitting Points Used by GA Software.
#

@<TRIPOS>MOLECULE
GA Fitting Points
  6973    0    0
SMALL
NO_CHARGES


@<TRIPOS>ATOM
      1 ****       -15.5000   8.2500  72.0000 Du        
      2 ****       -15.2500   7.7500  71.7500 Du        
      3 ****       -15.2500   7.7500  72.0000 Du        
      4 ****       -15.2500   7.7500  72.2500 Du        
      5 ****       -15.2500   8.0000  71.7500 Du        
      6 ****       -15.2500   8.0000  72.0000 Du        
      7 ****       -15.2500   8.0000  72.2500 Du        
      8 ****       -15.2500   8.2500  71.7500 Du        
      9 ****       -15.2500   8.2500  72.0000 Du        
     10 ****       -15.2500   8.2500  72.2500 Du        
     11 ****       -15.2500   8.5000  71.7500 Du        
     12 ****       -15.2500   8.5000  72.0000 Du        
     13 ****       -15.2500   8.5000  72.2500 Du        
     14 ****       -15.2500  15.0000  71.5000 Du        
     15 ****       -15.2500  15.0000  71.7500 Du        
     16 ****       -15.2500  15.2500  71.2500 Du        
     17 ****       -15.2500  15.2500  71.5000 Du        
     18 ****       -15.2500  15.2500  71.7500 Du        
     19 ****       -15.2500  15.5000  71.2500 Du        
     20 ****       -15.2500  15.5000  71.5000 Du        
     21 ****       -15.0000   7.2500  72.0000 Du        
     22 ****       -15.0000   7.5000  71.7500 Du        
     23 ****       -15.0000   7.5000  72.0000 Du        
     24 ****       -15.0000   7.5000  72.2500 Du        
     25 ****       -15.0000   7.7500  71.5000 Du        
     26 ****       -15.0000   7.7500  71.7500 Du        
     27 ****       -15.0000   7.7500  72.0000 Du        
     28 ****       -15.0000   7.7500  72.2500 Du        
     29 ****       -15.0000   7.7500  72.5000 Du        
     30 ****       -15.0000   8.0000  71.5000 Du        
     31 ****       -15.0000   8.0000  71.7500 Du        
     32 ****       -15.0000   8.0000  72.0000 Du        
     33 ****       -15.0000   8.0000  72.2500 Du        
     34 ****       -15.0000   8.0000  72.5000 Du        
     35 ****       -15.0000   8.2500  71.2500 Du        
     36 ****       -15.0000   8.2500  71.5000 Du        
     37 ****       -15.0000   8.2500  71.7500 Du        
     38 ****       -15.0000   8.2500  72.0000 Du        
     39 ****       -15.0000   8.2500  72.2500 Du        
     40 ****       -15.0000   8.2500  72.5000 Du        
     41 ****       -15.0000   8.5000  71.2500 Du        
     42 ****       -15.0000   8.5000  71.5000 Du        
     43 ****       -15.0000   8.5000  71.7500 Du        
     44 ****       -15.0000   8.5000  72.0000 Du        
     45 ****       -15.0000   8.5000  72.2500 Du        
     46 ****       -15.0000   8.7500  71.5000 Du        
     47 ****       -15.0000   8.7500  71.7500 Du        
     48 ****       -15.0000   8.7500  72.0000 Du        
     49 ****       -15.0000   8.7500  72.2500 Du        
     50 ****       -15.0000  14.7500  71.7500 Du        
     51 ****       -15.0000  14.7500  72.0000 Du        
     52 ****       -15.0000  15.0000  71.5000 Du        
     53 ****       -15.0000  15.0000  71.7500 Du        
     54 ****       -15.0000  15.0000  72.0000 Du        
     55 ****       -15.0000  15.2500  71.2500 Du        
     56 ****       -15.0000  15.2500  71.5000 Du        
     57 ****       -15.0000  15.2500  71.7500 Du        
     58 ****       -15.0000  15.2500  72.0000 Du        
     59 ****       -15.0000  15.5000  71.2500 Du        
     60 ****       -15.0000  15.5000  71.5000 Du        
     61 ****       -15.0000  15.5000  71.7500 Du        
     62 ****       -14.7500   7.2500  71.7500 Du        
     63 ****       -14.7500   7.2500  72.0000 Du        
     64 ****       -14.7500   7.2500  72.2500 Du        
     65 ****       -14.7500   7.5000  71.5000 Du        
     66 ****       -14.7500   7.5000  71.7500 Du        
     67 ****       -14.7500   7.5000  72.0000 Du        
     68 ****       -14.7500   7.5000  72.2500 Du        
     69 ****       -14.7500   7.5000  72.5000 Du        
     70 ****       -14.7500   7.7500  71.2500 Du        
     71 ****       -14.7500   7.7500  71.5000 Du        
     72 ****       -14.7500   7.7500  71.7500 Du        
     73 ****       -14.7500   7.7500  72.0000 Du        
     74 ****       -14.7500   7.7500  72.2500 Du        
     75 ****       -14.7500   7.7500  72.5000 Du        
     76 ****       -14.7500   8.0000  71.2500 Du        
     77 ****       -14.7500   8.0000  71.5000 Du        
     78 ****       -14.7500   8.0000  71.7500 Du        
     79 ****       -14.7500   8.0000  72.0000 Du        
     80 ****       -14.7500   8.0000  72.2500 Du        
     81 ****       -14.7500   8.0000  72.5000 Du        
     82 ****       -14.7500   8.2500  71.2500 Du        
     83 ****       -14.7500   8.2500  71.5000 Du        
     84 ****       -14.7500   8.2500  71.7500 Du        
     85 ****       -14.7500   8.2500  72.0000 Du        
     86 ****       -14.7500   8.2500  72.2500 Du        
     87 ****       -14.7500   8.2500  72.5000 Du        
     88 ****       -14.7500   8.5000  71.0000 Du        
     89 ****       -14.7500   8.5000  71.2500 Du        
     90 ****       -14.7500   8.5000  71.5000 Du        
     91 ****       -14.7500   8.5000  71.7500 Du        
     92 ****       -14.7500   8.5000  72.0000 Du        
     93 ****       -14.7500   8.5000  72.2500 Du        
     94 ****       -14.7500   8.5000  72.5000 Du        
     95 ****       -14.7500   8.7500  71.0000 Du        
     96 ****       -14.7500   8.7500  71.2500 Du        
     97 ****       -14.7500   8.7500  71.5000 Du        
     98 ****       -14.7500   8.7500  71.7500 Du        
     99 ****       -14.7500   8.7500  72.0000 Du        
    100 ****       -14.7500   8.7500  72.2500 Du        
    101 ****       -14.7500   8.7500  72.5000 Du        
    102 ****       -14.7500   9.0000  71.5000 Du        
    103 ****       -14.7500   9.0000  71.7500 Du        
    104 ****       -14.7500   9.0000  72.0000 Du        
    105 ****       -14.7500   9.0000  72.2500 Du        
    106 ****       -14.7500  14.2500  72.0000 Du        
    107 ****       -14.7500  14.2500  72.2500 Du        
    108 ****       -14.7500  14.5000  71.7500 Du        
    109 ****       -14.7500  14.5000  72.0000 Du        
    110 ****       -14.7500  14.5000  72.2500 Du        
    111 ****       -14.7500  14.7500  71.5000 Du        
    112 ****       -14.7500  14.7500  71.7500 Du        
    113 ****       -14.7500  14.7500  72.0000 Du        
    114 ****       -14.7500  14.7500  72.2500 Du        
    115 ****       -14.7500  15.0000  71.5000 Du        
    116 ****       -14.7500  15.0000  71.7500 Du        
    117 ****       -14.7500  15.0000  72.0000 Du        
    118 ****       -14.7500  15.0000  72.2500 Du        
    119 ****       -14.7500  15.2500  71.2500 Du        
    120 ****       -14.7500  15.2500  71.5000 Du        
    121 ****       -14.7500  15.2500  71.7500 Du        
    122 ****       -14.7500  15.2500  72.0000 Du        
    123 ****       -14.7500  15.2500  72.2500 Du        
    124 ****       -14.7500  15.5000  71.2500 Du        
    125 ****       -14.7500  15.5000  71.5000 Du        
    126 ****       -14.7500  15.5000  71.7500 Du        
    127 ****       -14.7500  15.5000  72.0000 Du        
    128 ****       -14.7500  15.7500  71.5000 Du        
    129 ****       -14.7500  15.7500  71.7500 Du        
    130 ****       -14.7500  15.7500  72.0000 Du        
    131 ****       -14.5000   7.0000  72.0000 Du        
    132 ****       -14.5000   7.0000  72.2500 Du        
    133 ****       -14.5000   7.2500  71.7500 Du        
    134 ****       -14.5000   7.2500  72.0000 Du        
    135 ****       -14.5000   7.2500  72.2500 Du        
    136 ****       -14.5000   7.2500  72.5000 Du        
    137 ****       -14.5000   7.5000  71.5000 Du        
    138 ****       -14.5000   7.5000  71.7500 Du        
    139 ****       -14.5000   7.5000  72.0000 Du        
    140 ****       -14.5000   7.5000  72.2500 Du        
    141 ****       -14.5000   7.5000  72.5000 Du        
    142 ****       -14.5000   7.7500  71.2500 Du        
    143 ****       -14.5000   7.7500  71.5000 Du        
    144 ****       -14.5000   7.7500  71.7500 Du        
    145 ****       -14.5000   7.7500  72.0000 Du        
    146 ****       -14.5000   7.7500  72.2500 Du        
    147 ****       -14.5000   7.7500  72.5000 Du        
    148 ****       -14.5000   8.0000  71.0000 Du        
    149 ****       -14.5000   8.0000  71.2500 Du        
    150 ****       -14.5000   8.0000  71.5000 Du        
    151 ****       -14.5000   8.0000  71.7500 Du        
    152 ****       -14.5000   8.0000  72.0000 Du        
    153 ****       -14.5000   8.0000  72.2500 Du        
    154 ****       -14.5000   8.0000  72.5000 Du        
    155 ****       -14.5000   8.0000  72.7500 Du        
    156 ****       -14.5000   8.2500  71.0000 Du        
    157 ****       -14.5000   8.2500  71.2500 Du        
    158 ****       -14.5000   8.2500  71.5000 Du        
    159 ****       -14.5000   8.2500  71.7500 Du        
    160 ****       -14.5000   8.2500  72.0000 Du        
    161 ****       -14.5000   8.2500  72.2500 Du        
    162 ****       -14.5000   8.2500  72.5000 Du        
    163 ****       -14.5000   8.2500  72.7500 Du        
    164 ****       -14.5000   8.5000  71.0000 Du        
    165 ****       -14.5000   8.5000  71.2500 Du        
    166 ****       -14.5000   8.5000  71.5000 Du        
    167 ****       -14.5000   8.5000  71.7500 Du        
    168 ****       -14.5000   8.5000  72.0000 Du        
    169 ****       -14.5000   8.5000  72.2500 Du        
    170 ****       -14.5000   8.5000  72.5000 Du        
    171 ****       -14.5000   8.5000  72.7500 Du        
    172 ****       -14.5000   8.7500  71.0000 Du        
    173 ****       -14.5000   8.7500  71.2500 Du        
    174 ****       -14.5000   8.7500  71.5000 Du        
    175 ****       -14.5000   8.7500  71.7500 Du        
    176 ****       -14.5000   8.7500  72.0000 Du        
    177 ****       -14.5000   8.7500  72.2500 Du        
    178 ****       -14.5000   8.7500  72.5000 Du        
    179 ****       -14.5000   9.0000  71.0000 Du        
    180 ****       -14.5000   9.0000  71.2500 Du        
    181 ****       -14.5000   9.0000  71.5000 Du        
    182 ****       -14.5000   9.0000  71.7500 Du        
    183 ****       -14.5000   9.0000  72.0000 Du        
    184 ****       -14.5000   9.0000  72.2500 Du        
    185 ****       -14.5000   9.0000  72.5000 Du        
    186 ****       -14.5000   9.2500  71.7500 Du        
    187 ****       -14.5000   9.2500  72.0000 Du        
    188 ****       -14.5000   9.2500  72.2500 Du        
    189 ****       -14.5000   9.2500  72.5000 Du        
    190 ****       -14.5000  13.7500  72.2500 Du        
    191 ****       -14.5000  13.7500  72.5000 Du        
    192 ****       -14.5000  14.0000  72.0000 Du        
    193 ****       -14.5000  14.0000  72.2500 Du        
    194 ****       -14.5000  14.0000  72.5000 Du        
    195 ****       -14.5000  14.2500  71.7500 Du        
    196 ****       -14.5000  14.2500  72.0000 Du        
    197 ****       -14.5000  14.2500  72.2500 Du        
    198 ****       -14.5000  14.2500  72.5000 Du        
    199 ****       -14.5000  14.5000  71.7500 Du        
    200 ****       -14.5000  14.5000  72.0000 Du        
    201 ****       -14.5000  14.5000  72.2500 Du        
    202 ****       -14.5000  14.5000  72.5000 Du        
    203 ****       -14.5000  14.7500  71.5000 Du        
    204 ****       -14.5000  14.7500  71.7500 Du        
    205 ****       -14.5000  14.7500  72.0000 Du        
    206 ****       -14.5000  14.7500  72.2500 Du        
    207 ****       -14.5000  14.7500  72.5000 Du        
    208 ****       -14.5000  15.0000  71.2500 Du        
    209 ****       -14.5000  15.0000  71.5000 Du        
    210 ****       -14.5000  15.0000  71.7500 Du        
    211 ****       -14.5000  15.0000  72.0000 Du        
    212 ****       -14.5000  15.0000  72.2500 Du        
    213 ****       -14.5000  15.0000  72.5000 Du        
    214 ****       -14.5000  15.2500  71.2500 Du        
    215 ****       -14.5000  15.2500  71.5000 Du        
    216 ****       -14.5000  15.2500  71.7500 Du        
    217 ****       -14.5000  15.2500  72.0000 Du        
    218 ****       -14.5000  15.2500  72.2500 Du        
    219 ****       -14.5000  15.2500  72.5000 Du        
    220 ****       -14.5000  15.5000  71.2500 Du        
    221 ****       -14.5000  15.5000  71.5000 Du        
    222 ****       -14.5000  15.5000  71.7500 Du        
    223 ****       -14.5000  15.5000  72.0000 Du        
    224 ****       -14.5000  15.5000  72.2500 Du        
    225 ****       -14.5000  15.5000  72.5000 Du        
    226 ****       -14.5000  15.7500  71.5000 Du        
    227 ****       -14.5000  15.7500  71.7500 Du        
    228 ****       -14.5000  15.7500  72.0000 Du        
    229 ****       -14.5000  15.7500  72.2500 Du        
    230 ****       -14.2500   7.0000  72.0000 Du        
    231 ****       -14.2500   7.0000  72.2500 Du        
    232 ****       -14.2500   7.2500  71.7500 Du        
    233 ****       -14.2500   7.2500  72.0000 Du        
    234 ****       -14.2500   7.2500  72.2500 Du        
    235 ****       -14.2500   7.2500  72.5000 Du        
    236 ****       -14.2500   7.5000  71.2500 Du        
    237 ****       -14.2500   7.5000  71.5000 Du        
    238 ****       -14.2500   7.5000  71.7500 Du        
    239 ****       -14.2500   7.5000  72.0000 Du        
    240 ****       -14.2500   7.5000  72.2500 Du        
    241 ****       -14.2500   7.5000  72.5000 Du        
    242 ****       -14.2500   7.7500  71.0000 Du        
    243 ****       -14.2500   7.7500  71.2500 Du        
    244 ****       -14.2500   7.7500  71.5000 Du        
    245 ****       -14.2500   7.7500  71.7500 Du        
    246 ****       -14.2500   7.7500  72.0000 Du        
    247 ****       -14.2500   7.7500  72.2500 Du        
    248 ****       -14.2500   7.7500  72.5000 Du        
    249 ****       -14.2500   8.0000  71.0000 Du        
    250 ****       -14.2500   8.0000  71.2500 Du        
    251 ****       -14.2500   8.0000  71.5000 Du        
    252 ****       -14.2500   8.0000  71.7500 Du        
    253 ****       -14.2500   8.0000  72.0000 Du        
    254 ****       -14.2500   8.0000  72.2500 Du        
    255 ****       -14.2500   8.0000  72.5000 Du        
    256 ****       -14.2500   8.0000  72.7500 Du        
    257 ****       -14.2500   8.2500  71.0000 Du        
    258 ****       -14.2500   8.2500  71.2500 Du        
    259 ****       -14.2500   8.2500  71.5000 Du        
    260 ****       -14.2500   8.2500  71.7500 Du        
    261 ****       -14.2500   8.2500  72.0000 Du        
    262 ****       -14.2500   8.2500  72.2500 Du        
    263 ****       -14.2500   8.2500  72.5000 Du        
    264 ****       -14.2500   8.2500  72.7500 Du        
    265 ****       -14.2500   8.5000  71.0000 Du        
    266 ****       -14.2500   8.5000  71.2500 Du        
    267 ****       -14.2500   8.5000  71.5000 Du        
    268 ****       -14.2500   8.5000  71.7500 Du        
    269 ****       -14.2500   8.5000  72.0000 Du        
    270 ****       -14.2500   8.5000  72.2500 Du        
    271 ****       -14.2500   8.5000  72.5000 Du        
    272 ****       -14.2500   8.5000  72.7500 Du        
    273 ****       -14.2500   8.7500  71.0000 Du        
    274 ****       -14.2500   8.7500  71.2500 Du        
    275 ****       -14.2500   8.7500  71.5000 Du        
    276 ****       -14.2500   8.7500  71.7500 Du        
    277 ****       -14.2500   8.7500  72.0000 Du        
    278 ****       -14.2500   8.7500  72.2500 Du        
    279 ****       -14.2500   8.7500  72.5000 Du        
    280 ****       -14.2500   8.7500  72.7500 Du        
    281 ****       -14.2500   9.0000  71.0000 Du        
    282 ****       -14.2500   9.0000  71.2500 Du        
    283 ****       -14.2500   9.0000  71.5000 Du        
    284 ****       -14.2500   9.0000  71.7500 Du        
    285 ****       -14.2500   9.0000  72.0000 Du        
    286 ****       -14.2500   9.0000  72.2500 Du        
    287 ****       -14.2500   9.0000  72.5000 Du        
    288 ****       -14.2500   9.0000  72.7500 Du        
    289 ****       -14.2500   9.2500  71.0000 Du        
    290 ****       -14.2500   9.2500  71.2500 Du        
    291 ****       -14.2500   9.2500  71.5000 Du        
    292 ****       -14.2500   9.2500  71.7500 Du        
    293 ****       -14.2500   9.2500  72.0000 Du        
    294 ****       -14.2500   9.2500  72.2500 Du        
    295 ****       -14.2500   9.2500  72.5000 Du        
    296 ****       -14.2500   9.5000  71.7500 Du        
    297 ****       -14.2500   9.5000  72.0000 Du        
    298 ****       -14.2500   9.5000  72.2500 Du        
    299 ****       -14.2500   9.5000  72.5000 Du        
    300 ****       -14.2500  13.2500  72.2500 Du        
    301 ****       -14.2500  13.2500  72.5000 Du        
    302 ****       -14.2500  13.5000  72.0000 Du        
    303 ****       -14.2500  13.5000  72.2500 Du        
    304 ****       -14.2500  13.5000  72.5000 Du        
    305 ****       -14.2500  13.7500  72.0000 Du        
    306 ****       -14.2500  13.7500  72.2500 Du        
    307 ****       -14.2500  13.7500  72.5000 Du        
    308 ****       -14.2500  13.7500  72.7500 Du        
    309 ****       -14.2500  14.0000  71.7500 Du        
    310 ****       -14.2500  14.0000  72.0000 Du        
    311 ****       -14.2500  14.0000  72.2500 Du        
    312 ****       -14.2500  14.0000  72.5000 Du        
    313 ****       -14.2500  14.0000  72.7500 Du        
    314 ****       -14.2500  14.2500  71.7500 Du        
    315 ****       -14.2500  14.2500  72.0000 Du        
    316 ****       -14.2500  14.2500  72.2500 Du        
    317 ****       -14.2500  14.2500  72.5000 Du        
    318 ****       -14.2500  14.2500  72.7500 Du        
    319 ****       -14.2500  14.5000  71.5000 Du        
    320 ****       -14.2500  14.5000  71.7500 Du        
    321 ****       -14.2500  14.5000  72.0000 Du        
    322 ****       -14.2500  14.5000  72.2500 Du        
    323 ****       -14.2500  14.5000  72.5000 Du        
    324 ****       -14.2500  14.5000  72.7500 Du        
    325 ****       -14.2500  14.7500  71.5000 Du        
    326 ****       -14.2500  14.7500  71.7500 Du        
    327 ****       -14.2500  14.7500  72.0000 Du        
    328 ****       -14.2500  14.7500  72.2500 Du        
    329 ****       -14.2500  14.7500  72.5000 Du        
    330 ****       -14.2500  14.7500  72.7500 Du        
    331 ****       -14.2500  15.0000  71.2500 Du        
    332 ****       -14.2500  15.0000  71.5000 Du        
    333 ****       -14.2500  15.0000  71.7500 Du        
    334 ****       -14.2500  15.0000  72.0000 Du        
    335 ****       -14.2500  15.0000  72.2500 Du        
    336 ****       -14.2500  15.0000  72.5000 Du        
    337 ****       -14.2500  15.0000  72.7500 Du        
    338 ****       -14.2500  15.2500  71.0000 Du        
    339 ****       -14.2500  15.2500  71.2500 Du        
    340 ****       -14.2500  15.2500  71.5000 Du        
    341 ****       -14.2500  15.2500  71.7500 Du        
    342 ****       -14.2500  15.2500  72.0000 Du        
    343 ****       -14.2500  15.2500  72.2500 Du        
    344 ****       -14.2500  15.2500  72.5000 Du        
    345 ****       -14.2500  15.2500  72.7500 Du        
    346 ****       -14.2500  15.2500  73.0000 Du        
    347 ****       -14.2500  15.5000  71.0000 Du        
    348 ****       -14.2500  15.5000  71.2500 Du        
    349 ****       -14.2500  15.5000  71.5000 Du        
    350 ****       -14.2500  15.5000  71.7500 Du        
    351 ****       -14.2500  15.5000  72.0000 Du        
    352 ****       -14.2500  15.5000  72.2500 Du        
    353 ****       -14.2500  15.5000  72.5000 Du        
    354 ****       -14.2500  15.5000  72.7500 Du        
    355 ****       -14.2500  15.5000  73.0000 Du        
    356 ****       -14.2500  15.7500  71.2500 Du        
    357 ****       -14.2500  15.7500  71.5000 Du        
    358 ****       -14.2500  15.7500  71.7500 Du        
    359 ****       -14.2500  15.7500  72.0000 Du        
    360 ****       -14.2500  15.7500  72.2500 Du        
    361 ****       -14.2500  15.7500  72.5000 Du        
    362 ****       -14.2500  15.7500  72.7500 Du        
    363 ****       -14.2500  15.7500  73.0000 Du        
    364 ****       -14.2500  16.0000  72.0000 Du        
    365 ****       -14.2500  16.0000  72.2500 Du        
    366 ****       -14.2500  16.0000  72.5000 Du        
    367 ****       -14.2500  16.0000  72.7500 Du        
    368 ****       -14.0000   7.0000  72.0000 Du        
    369 ****       -14.0000   7.0000  72.2500 Du        
    370 ****       -14.0000   7.2500  71.5000 Du        
    371 ****       -14.0000   7.2500  71.7500 Du        
    372 ****       -14.0000   7.2500  72.0000 Du        
    373 ****       -14.0000   7.2500  72.2500 Du        
    374 ****       -14.0000   7.5000  71.2500 Du        
    375 ****       -14.0000   7.5000  71.5000 Du        
    376 ****       -14.0000   7.5000  71.7500 Du        
    377 ****       -14.0000   7.5000  72.0000 Du        
    378 ****       -14.0000   7.5000  72.2500 Du        
    379 ****       -14.0000   7.5000  72.5000 Du        
    380 ****       -14.0000   7.7500  71.0000 Du        
    381 ****       -14.0000   7.7500  71.2500 Du        
    382 ****       -14.0000   7.7500  71.5000 Du        
    383 ****       -14.0000   7.7500  71.7500 Du        
    384 ****       -14.0000   7.7500  72.0000 Du        
    385 ****       -14.0000   7.7500  72.2500 Du        
    386 ****       -14.0000   7.7500  72.5000 Du        
    387 ****       -14.0000   8.0000  71.0000 Du        
    388 ****       -14.0000   8.0000  71.2500 Du        
    389 ****       -14.0000   8.0000  71.5000 Du        
    390 ****       -14.0000   8.0000  71.7500 Du        
    391 ****       -14.0000   8.0000  72.0000 Du        
    392 ****       -14.0000   8.0000  72.2500 Du        
    393 ****       -14.0000   8.0000  72.5000 Du        
    394 ****       -14.0000   8.0000  72.7500 Du        
    395 ****       -14.0000   8.2500  71.0000 Du        
    396 ****       -14.0000   8.2500  71.2500 Du        
    397 ****       -14.0000   8.2500  71.5000 Du        
    398 ****       -14.0000   8.2500  71.7500 Du        
    399 ****       -14.0000   8.2500  72.0000 Du        
    400 ****       -14.0000   8.2500  72.2500 Du        
    401 ****       -14.0000   8.2500  72.5000 Du        
    402 ****       -14.0000   8.2500  72.7500 Du        
    403 ****       -14.0000   8.5000  71.0000 Du        
    404 ****       -14.0000   8.5000  71.2500 Du        
    405 ****       -14.0000   8.5000  71.5000 Du        
    406 ****       -14.0000   8.5000  71.7500 Du        
    407 ****       -14.0000   8.5000  72.0000 Du        
    408 ****       -14.0000   8.5000  72.2500 Du        
    409 ****       -14.0000   8.5000  72.5000 Du        
    410 ****       -14.0000   8.5000  72.7500 Du        
    411 ****       -14.0000   8.7500  70.7500 Du        
    412 ****       -14.0000   8.7500  71.0000 Du        
    413 ****       -14.0000   8.7500  71.2500 Du        
    414 ****       -14.0000   8.7500  71.5000 Du        
    415 ****       -14.0000   8.7500  71.7500 Du        
    416 ****       -14.0000   8.7500  72.0000 Du        
    417 ****       -14.0000   8.7500  72.2500 Du        
    418 ****       -14.0000   8.7500  72.5000 Du        
    419 ****       -14.0000   8.7500  72.7500 Du        
    420 ****       -14.0000   9.0000  70.7500 Du        
    421 ****       -14.0000   9.0000  71.0000 Du        
    422 ****       -14.0000   9.0000  71.2500 Du        
    423 ****       -14.0000   9.0000  71.5000 Du        
    424 ****       -14.0000   9.0000  71.7500 Du        
    425 ****       -14.0000   9.0000  72.0000 Du        
    426 ****       -14.0000   9.0000  72.2500 Du        
    427 ****       -14.0000   9.0000  72.5000 Du        
    428 ****       -14.0000   9.0000  72.7500 Du        
    429 ****       -14.0000   9.2500  70.7500 Du        
    430 ****       -14.0000   9.2500  71.0000 Du        
    431 ****       -14.0000   9.2500  71.2500 Du        
    432 ****       -14.0000   9.2500  71.5000 Du        
    433 ****       -14.0000   9.2500  71.7500 Du        
    434 ****       -14.0000   9.2500  72.0000 Du        
    435 ****       -14.0000   9.2500  72.2500 Du        
    436 ****       -14.0000   9.2500  72.5000 Du        
    437 ****       -14.0000   9.5000  71.0000 Du        
    438 ****       -14.0000   9.5000  71.2500 Du        
    439 ****       -14.0000   9.5000  71.5000 Du        
    440 ****       -14.0000   9.5000  71.7500 Du        
    441 ****       -14.0000   9.5000  72.0000 Du        
    442 ****       -14.0000   9.5000  72.2500 Du        
    443 ****       -14.0000   9.5000  72.5000 Du        
    444 ****       -14.0000   9.7500  71.5000 Du        
    445 ****       -14.0000   9.7500  71.7500 Du        
    446 ****       -14.0000   9.7500  72.0000 Du        
    447 ****       -14.0000   9.7500  72.2500 Du        
    448 ****       -14.0000  10.0000  72.0000 Du        
    449 ****       -14.0000  12.7500  72.2500 Du        
    450 ****       -14.0000  12.7500  72.5000 Du        
    451 ****       -14.0000  13.0000  72.2500 Du        
    452 ****       -14.0000  13.0000  72.5000 Du        
    453 ****       -14.0000  13.2500  72.0000 Du        
    454 ****       -14.0000  13.2500  72.2500 Du        
    455 ****       -14.0000  13.2500  72.5000 Du        
    456 ****       -14.0000  13.2500  72.7500 Du        
    457 ****       -14.0000  13.5000  72.0000 Du        
    458 ****       -14.0000  13.5000  72.2500 Du        
    459 ****       -14.0000  13.5000  72.5000 Du        
    460 ****       -14.0000  13.5000  72.7500 Du        
    461 ****       -14.0000  13.7500  71.7500 Du        
    462 ****       -14.0000  13.7500  72.0000 Du        
    463 ****       -14.0000  13.7500  72.2500 Du        
    464 ****       -14.0000  13.7500  72.5000 Du        
    465 ****       -14.0000  13.7500  72.7500 Du        
    466 ****       -14.0000  14.0000  71.7500 Du        
    467 ****       -14.0000  14.0000  72.0000 Du        
    468 ****       -14.0000  14.0000  72.2500 Du        
    469 ****       -14.0000  14.0000  72.5000 Du        
    470 ****       -14.0000  14.0000  72.7500 Du        
    471 ****       -14.0000  14.0000  73.0000 Du        
    472 ****       -14.0000  14.2500  71.5000 Du        
    473 ****       -14.0000  14.2500  71.7500 Du        
    474 ****       -14.0000  14.2500  72.0000 Du        
    475 ****       -14.0000  14.2500  72.2500 Du        
    476 ****       -14.0000  14.2500  72.5000 Du        
    477 ****       -14.0000  14.2500  72.7500 Du        
    478 ****       -14.0000  14.2500  73.0000 Du        
    479 ****       -14.0000  14.5000  71.5000 Du        
    480 ****       -14.0000  14.5000  71.7500 Du        
    481 ****       -14.0000  14.5000  72.0000 Du        
    482 ****       -14.0000  14.5000  72.2500 Du        
    483 ****       -14.0000  14.5000  72.5000 Du        
    484 ****       -14.0000  14.5000  72.7500 Du        
    485 ****       -14.0000  14.5000  73.0000 Du        
    486 ****       -14.0000  14.7500  71.2500 Du        
    487 ****       -14.0000  14.7500  71.5000 Du        
    488 ****       -14.0000  14.7500  71.7500 Du        
    489 ****       -14.0000  14.7500  72.0000 Du        
    490 ****       -14.0000  14.7500  72.2500 Du        
    491 ****       -14.0000  14.7500  72.5000 Du        
    492 ****       -14.0000  14.7500  72.7500 Du        
    493 ****       -14.0000  14.7500  73.0000 Du        
    494 ****       -14.0000  15.0000  71.0000 Du        
    495 ****       -14.0000  15.0000  71.2500 Du        
    496 ****       -14.0000  15.0000  71.5000 Du        
    497 ****       -14.0000  15.0000  71.7500 Du        
    498 ****       -14.0000  15.0000  72.0000 Du        
    499 ****       -14.0000  15.0000  72.2500 Du        
    500 ****       -14.0000  15.0000  72.5000 Du        
    501 ****       -14.0000  15.0000  72.7500 Du        
    502 ****       -14.0000  15.0000  73.0000 Du        
    503 ****       -14.0000  15.0000  73.2500 Du        
    504 ****       -14.0000  15.2500  71.0000 Du        
    505 ****       -14.0000  15.2500  71.2500 Du        
    506 ****       -14.0000  15.2500  71.5000 Du        
    507 ****       -14.0000  15.2500  71.7500 Du        
    508 ****       -14.0000  15.2500  72.0000 Du        
    509 ****       -14.0000  15.2500  72.2500 Du        
    510 ****       -14.0000  15.2500  72.5000 Du        
    511 ****       -14.0000  15.2500  72.7500 Du        
    512 ****       -14.0000  15.2500  73.0000 Du        
    513 ****       -14.0000  15.2500  73.2500 Du        
    514 ****       -14.0000  15.5000  71.0000 Du        
    515 ****       -14.0000  15.5000  71.2500 Du        
    516 ****       -14.0000  15.5000  71.5000 Du        
    517 ****       -14.0000  15.5000  71.7500 Du        
    518 ****       -14.0000  15.5000  72.0000 Du        
    519 ****       -14.0000  15.5000  72.2500 Du        
    520 ****       -14.0000  15.5000  72.5000 Du        
    521 ****       -14.0000  15.5000  72.7500 Du        
    522 ****       -14.0000  15.5000  73.0000 Du        
    523 ****       -14.0000  15.5000  73.2500 Du        
    524 ****       -14.0000  15.7500  71.0000 Du        
    525 ****       -14.0000  15.7500  71.2500 Du        
    526 ****       -14.0000  15.7500  71.5000 Du        
    527 ****       -14.0000  15.7500  71.7500 Du        
    528 ****       -14.0000  15.7500  72.0000 Du        
    529 ****       -14.0000  15.7500  72.2500 Du        
    530 ****       -14.0000  15.7500  72.5000 Du        
    531 ****       -14.0000  15.7500  72.7500 Du        
    532 ****       -14.0000  15.7500  73.0000 Du        
    533 ****       -14.0000  15.7500  73.2500 Du        
    534 ****       -14.0000  16.0000  71.7500 Du        
    535 ****       -14.0000  16.0000  72.0000 Du        
    536 ****       -14.0000  16.0000  72.2500 Du        
    537 ****       -14.0000  16.0000  72.5000 Du        
    538 ****       -14.0000  16.0000  72.7500 Du        
    539 ****       -14.0000  16.0000  73.0000 Du        
    540 ****       -14.0000  16.0000  73.2500 Du        
    541 ****       -14.0000  16.2500  72.7500 Du        
    542 ****       -14.0000  16.2500  73.0000 Du        
    543 ****       -13.7500   7.0000  71.7500 Du        
    544 ****       -13.7500   7.0000  72.0000 Du        
    545 ****       -13.7500   7.0000  72.2500 Du        
    546 ****       -13.7500   7.2500  71.5000 Du        
    547 ****       -13.7500   7.2500  71.7500 Du        
    548 ****       -13.7500   7.2500  72.0000 Du        
    549 ****       -13.7500   7.2500  72.2500 Du        
    550 ****       -13.7500   7.5000  71.2500 Du        
    551 ****       -13.7500   7.5000  71.5000 Du        
    552 ****       -13.7500   7.5000  71.7500 Du        
    553 ****       -13.7500   7.5000  72.0000 Du        
    554 ****       -13.7500   7.5000  72.2500 Du        
    555 ****       -13.7500   7.5000  72.5000 Du        
    556 ****       -13.7500   7.7500  71.0000 Du        
    557 ****       -13.7500   7.7500  71.2500 Du        
    558 ****       -13.7500   7.7500  71.5000 Du        
    559 ****       -13.7500   7.7500  71.7500 Du        
    560 ****       -13.7500   7.7500  72.0000 Du        
    561 ****       -13.7500   7.7500  72.2500 Du        
    562 ****       -13.7500   7.7500  72.5000 Du        
    563 ****       -13.7500   8.0000  71.0000 Du        
    564 ****       -13.7500   8.0000  71.2500 Du        
    565 ****       -13.7500   8.0000  71.5000 Du        
    566 ****       -13.7500   8.0000  71.7500 Du        
    567 ****       -13.7500   8.0000  72.0000 Du        
    568 ****       -13.7500   8.0000  72.2500 Du        
    569 ****       -13.7500   8.0000  72.5000 Du        
    570 ****       -13.7500   8.0000  72.7500 Du        
    571 ****       -13.7500   8.2500  71.0000 Du        
    572 ****       -13.7500   8.2500  71.2500 Du        
    573 ****       -13.7500   8.2500  71.5000 Du        
    574 ****       -13.7500   8.2500  71.7500 Du        
    575 ****       -13.7500   8.2500  72.0000 Du        
    576 ****       -13.7500   8.2500  72.2500 Du        
    577 ****       -13.7500   8.2500  72.5000 Du        
    578 ****       -13.7500   8.2500  72.7500 Du        
    579 ****       -13.7500   8.5000  71.0000 Du        
    580 ****       -13.7500   8.5000  71.2500 Du        
    581 ****       -13.7500   8.5000  71.5000 Du        
    582 ****       -13.7500   8.5000  71.7500 Du        
    583 ****       -13.7500   8.5000  72.0000 Du        
    584 ****       -13.7500   8.5000  72.2500 Du        
    585 ****       -13.7500   8.5000  72.5000 Du        
    586 ****       -13.7500   8.5000  72.7500 Du        
    587 ****       -13.7500   8.7500  70.7500 Du        
    588 ****       -13.7500   8.7500  71.0000 Du        
    589 ****       -13.7500   8.7500  71.2500 Du        
    590 ****       -13.7500   8.7500  71.5000 Du        
    591 ****       -13.7500   8.7500  71.7500 Du        
    592 ****       -13.7500   8.7500  72.0000 Du        
    593 ****       -13.7500   8.7500  72.2500 Du        
    594 ****       -13.7500   8.7500  72.5000 Du        
    595 ****       -13.7500   8.7500  72.7500 Du        
    596 ****       -13.7500   9.0000  70.7500 Du        
    597 ****       -13.7500   9.0000  71.0000 Du        
    598 ****       -13.7500   9.0000  71.2500 Du        
    599 ****       -13.7500   9.0000  71.5000 Du        
    600 ****       -13.7500   9.0000  71.7500 Du        
    601 ****       -13.7500   9.0000  72.0000 Du        
    602 ****       -13.7500   9.0000  72.2500 Du        
    603 ****       -13.7500   9.0000  72.5000 Du        
    604 ****       -13.7500   9.2500  70.7500 Du        
    605 ****       -13.7500   9.2500  71.0000 Du        
    606 ****       -13.7500   9.2500  71.2500 Du        
    607 ****       -13.7500   9.2500  71.5000 Du        
    608 ****       -13.7500   9.2500  71.7500 Du        
    609 ****       -13.7500   9.2500  72.0000 Du        
    610 ****       -13.7500   9.2500  72.2500 Du        
    611 ****       -13.7500   9.2500  72.5000 Du        
    612 ****       -13.7500   9.5000  70.7500 Du        
    613 ****       -13.7500   9.5000  71.0000 Du        
    614 ****       -13.7500   9.5000  71.2500 Du        
    615 ****       -13.7500   9.5000  71.5000 Du        
    616 ****       -13.7500   9.5000  71.7500 Du        
    617 ****       -13.7500   9.5000  72.0000 Du        
    618 ****       -13.7500   9.5000  72.2500 Du        
    619 ****       -13.7500   9.7500  71.0000 Du        
    620 ****       -13.7500   9.7500  71.2500 Du        
    621 ****       -13.7500   9.7500  71.5000 Du        
    622 ****       -13.7500   9.7500  71.7500 Du        
    623 ****       -13.7500   9.7500  72.0000 Du        
    624 ****       -13.7500   9.7500  72.2500 Du        
    625 ****       -13.7500  10.0000  71.5000 Du        
    626 ****       -13.7500  10.0000  71.7500 Du        
    627 ****       -13.7500  10.0000  72.0000 Du        
    628 ****       -13.7500  10.2500  71.7500 Du        
    629 ****       -13.7500  10.2500  72.0000 Du        
    630 ****       -13.7500  12.7500  72.0000 Du        
    631 ****       -13.7500  12.7500  72.2500 Du        
    632 ****       -13.7500  12.7500  72.5000 Du        
    633 ****       -13.7500  13.0000  72.0000 Du        
    634 ****       -13.7500  13.0000  72.2500 Du        
    635 ****       -13.7500  13.0000  72.5000 Du        
    636 ****       -13.7500  13.2500  71.7500 Du        
    637 ****       -13.7500  13.2500  72.0000 Du        
    638 ****       -13.7500  13.2500  72.2500 Du        
    639 ****       -13.7500  13.2500  72.5000 Du        
    640 ****       -13.7500  13.2500  72.7500 Du        
    641 ****       -13.7500  13.5000  71.7500 Du        
    642 ****       -13.7500  13.5000  72.0000 Du        
    643 ****       -13.7500  13.5000  72.2500 Du        
    644 ****       -13.7500  13.5000  72.5000 Du        
    645 ****       -13.7500  13.5000  72.7500 Du        
    646 ****       -13.7500  13.7500  71.7500 Du        
    647 ****       -13.7500  13.7500  72.0000 Du        
    648 ****       -13.7500  13.7500  72.2500 Du        
    649 ****       -13.7500  13.7500  72.5000 Du        
    650 ****       -13.7500  13.7500  72.7500 Du        
    651 ****       -13.7500  13.7500  73.0000 Du        
    652 ****       -13.7500  14.0000  71.5000 Du        
    653 ****       -13.7500  14.0000  71.7500 Du        
    654 ****       -13.7500  14.0000  72.0000 Du        
    655 ****       -13.7500  14.0000  72.2500 Du        
    656 ****       -13.7500  14.0000  72.5000 Du        
    657 ****       -13.7500  14.0000  72.7500 Du        
    658 ****       -13.7500  14.0000  73.0000 Du        
    659 ****       -13.7500  14.2500  71.5000 Du        
    660 ****       -13.7500  14.2500  71.7500 Du        
    661 ****       -13.7500  14.2500  72.0000 Du        
    662 ****       -13.7500  14.2500  72.2500 Du        
    663 ****       -13.7500  14.2500  72.5000 Du        
    664 ****       -13.7500  14.2500  72.7500 Du        
    665 ****       -13.7500  14.2500  73.0000 Du        
    666 ****       -13.7500  14.5000  71.2500 Du        
    667 ****       -13.7500  14.5000  71.5000 Du        
    668 ****       -13.7500  14.5000  71.7500 Du        
    669 ****       -13.7500  14.5000  72.0000 Du        
    670 ****       -13.7500  14.5000  72.2500 Du        
    671 ****       -13.7500  14.5000  72.5000 Du        
    672 ****       -13.7500  14.5000  72.7500 Du        
    673 ****       -13.7500  14.5000  73.0000 Du        
    674 ****       -13.7500  14.5000  73.2500 Du        
    675 ****       -13.7500  14.7500  71.0000 Du        
    676 ****       -13.7500  14.7500  71.2500 Du        
    677 ****       -13.7500  14.7500  71.5000 Du        
    678 ****       -13.7500  14.7500  71.7500 Du        
    679 ****       -13.7500  14.7500  72.0000 Du        
    680 ****       -13.7500  14.7500  72.2500 Du        
    681 ****       -13.7500  14.7500  72.5000 Du        
    682 ****       -13.7500  14.7500  72.7500 Du        
    683 ****       -13.7500  14.7500  73.0000 Du        
    684 ****       -13.7500  14.7500  73.2500 Du        
    685 ****       -13.7500  15.0000  71.0000 Du        
    686 ****       -13.7500  15.0000  71.2500 Du        
    687 ****       -13.7500  15.0000  71.5000 Du        
    688 ****       -13.7500  15.0000  71.7500 Du        
    689 ****       -13.7500  15.0000  72.0000 Du        
    690 ****       -13.7500  15.0000  72.2500 Du        
    691 ****       -13.7500  15.0000  72.5000 Du        
    692 ****       -13.7500  15.0000  72.7500 Du        
    693 ****       -13.7500  15.0000  73.0000 Du        
    694 ****       -13.7500  15.0000  73.2500 Du        
    695 ****       -13.7500  15.2500  70.7500 Du        
    696 ****       -13.7500  15.2500  71.0000 Du        
    697 ****       -13.7500  15.2500  71.2500 Du        
    698 ****       -13.7500  15.2500  71.5000 Du        
    699 ****       -13.7500  15.2500  71.7500 Du        
    700 ****       -13.7500  15.2500  72.0000 Du        
    701 ****       -13.7500  15.2500  72.2500 Du        
    702 ****       -13.7500  15.2500  72.5000 Du        
    703 ****       -13.7500  15.2500  72.7500 Du        
    704 ****       -13.7500  15.2500  73.0000 Du        
    705 ****       -13.7500  15.2500  73.2500 Du        
    706 ****       -13.7500  15.2500  73.5000 Du        
    707 ****       -13.7500  15.5000  70.7500 Du        
    708 ****       -13.7500  15.5000  71.0000 Du        
    709 ****       -13.7500  15.5000  71.2500 Du        
    710 ****       -13.7500  15.5000  71.5000 Du        
    711 ****       -13.7500  15.5000  71.7500 Du        
    712 ****       -13.7500  15.5000  72.0000 Du        
    713 ****       -13.7500  15.5000  72.2500 Du        
    714 ****       -13.7500  15.5000  72.5000 Du        
    715 ****       -13.7500  15.5000  72.7500 Du        
    716 ****       -13.7500  15.5000  73.0000 Du        
    717 ****       -13.7500  15.5000  73.2500 Du        
    718 ****       -13.7500  15.5000  73.5000 Du        
    719 ****       -13.7500  15.7500  71.0000 Du        
    720 ****       -13.7500  15.7500  71.2500 Du        
    721 ****       -13.7500  15.7500  71.5000 Du        
    722 ****       -13.7500  15.7500  71.7500 Du        
    723 ****       -13.7500  15.7500  72.0000 Du        
    724 ****       -13.7500  15.7500  72.2500 Du        
    725 ****       -13.7500  15.7500  72.5000 Du        
    726 ****       -13.7500  15.7500  72.7500 Du        
    727 ****       -13.7500  15.7500  73.0000 Du        
    728 ****       -13.7500  15.7500  73.2500 Du        
    729 ****       -13.7500  15.7500  73.5000 Du        
    730 ****       -13.7500  15.7500  73.7500 Du        
    731 ****       -13.7500  16.0000  71.5000 Du        
    732 ****       -13.7500  16.0000  71.7500 Du        
    733 ****       -13.7500  16.0000  72.0000 Du        
    734 ****       -13.7500  16.0000  72.2500 Du        
    735 ****       -13.7500  16.0000  72.5000 Du        
    736 ****       -13.7500  16.0000  72.7500 Du        
    737 ****       -13.7500  16.0000  73.0000 Du        
    738 ****       -13.7500  16.0000  73.2500 Du        
    739 ****       -13.7500  16.0000  73.5000 Du        
    740 ****       -13.7500  16.0000  73.7500 Du        
    741 ****       -13.7500  16.2500  72.5000 Du        
    742 ****       -13.7500  16.2500  72.7500 Du        
    743 ****       -13.7500  16.2500  73.0000 Du        
    744 ****       -13.7500  16.2500  73.2500 Du        
    745 ****       -13.7500  16.2500  73.5000 Du        
    746 ****       -13.5000   7.0000  71.7500 Du        
    747 ****       -13.5000   7.0000  72.0000 Du        
    748 ****       -13.5000   7.0000  72.2500 Du        
    749 ****       -13.5000   7.2500  71.2500 Du        
    750 ****       -13.5000   7.2500  71.5000 Du        
    751 ****       -13.5000   7.2500  71.7500 Du        
    752 ****       -13.5000   7.2500  72.0000 Du        
    753 ****       -13.5000   7.2500  72.2500 Du        
    754 ****       -13.5000   7.5000  71.0000 Du        
    755 ****       -13.5000   7.5000  71.2500 Du        
    756 ****       -13.5000   7.5000  71.5000 Du        
    757 ****       -13.5000   7.5000  71.7500 Du        
    758 ****       -13.5000   7.5000  72.0000 Du        
    759 ****       -13.5000   7.5000  72.2500 Du        
    760 ****       -13.5000   7.5000  72.5000 Du        
    761 ****       -13.5000   7.7500  71.0000 Du        
    762 ****       -13.5000   7.7500  71.2500 Du        
    763 ****       -13.5000   7.7500  71.5000 Du        
    764 ****       -13.5000   7.7500  71.7500 Du        
    765 ****       -13.5000   7.7500  72.0000 Du        
    766 ****       -13.5000   7.7500  72.2500 Du        
    767 ****       -13.5000   7.7500  72.5000 Du        
    768 ****       -13.5000   8.0000  71.0000 Du        
    769 ****       -13.5000   8.0000  71.2500 Du        
    770 ****       -13.5000   8.0000  71.5000 Du        
    771 ****       -13.5000   8.0000  71.7500 Du        
    772 ****       -13.5000   8.0000  72.0000 Du        
    773 ****       -13.5000   8.0000  72.2500 Du        
    774 ****       -13.5000   8.0000  72.5000 Du        
    775 ****       -13.5000   8.2500  71.0000 Du        
    776 ****       -13.5000   8.2500  71.2500 Du        
    777 ****       -13.5000   8.2500  71.5000 Du        
    778 ****       -13.5000   8.2500  71.7500 Du        
    779 ****       -13.5000   8.2500  72.0000 Du        
    780 ****       -13.5000   8.2500  72.2500 Du        
    781 ****       -13.5000   8.2500  72.5000 Du        
    782 ****       -13.5000   8.2500  72.7500 Du        
    783 ****       -13.5000   8.5000  71.0000 Du        
    784 ****       -13.5000   8.5000  71.2500 Du        
    785 ****       -13.5000   8.5000  71.5000 Du        
    786 ****       -13.5000   8.5000  71.7500 Du        
    787 ****       -13.5000   8.5000  72.0000 Du        
    788 ****       -13.5000   8.5000  72.2500 Du        
    789 ****       -13.5000   8.5000  72.5000 Du        
    790 ****       -13.5000   8.5000  72.7500 Du        
    791 ****       -13.5000   8.7500  70.7500 Du        
    792 ****       -13.5000   8.7500  71.0000 Du        
    793 ****       -13.5000   8.7500  71.2500 Du        
    794 ****       -13.5000   8.7500  71.5000 Du        
    795 ****       -13.5000   8.7500  71.7500 Du        
    796 ****       -13.5000   8.7500  72.0000 Du        
    797 ****       -13.5000   8.7500  72.2500 Du        
    798 ****       -13.5000   8.7500  72.5000 Du        
    799 ****       -13.5000   9.0000  70.7500 Du        
    800 ****       -13.5000   9.0000  71.0000 Du        
    801 ****       -13.5000   9.0000  71.2500 Du        
    802 ****       -13.5000   9.0000  71.5000 Du        
    803 ****       -13.5000   9.0000  71.7500 Du        
    804 ****       -13.5000   9.0000  72.0000 Du        
    805 ****       -13.5000   9.0000  72.2500 Du        
    806 ****       -13.5000   9.0000  72.5000 Du        
    807 ****       -13.5000   9.2500  70.7500 Du        
    808 ****       -13.5000   9.2500  71.0000 Du        
    809 ****       -13.5000   9.2500  71.2500 Du        
    810 ****       -13.5000   9.2500  71.5000 Du        
    811 ****       -13.5000   9.2500  71.7500 Du        
    812 ****       -13.5000   9.2500  72.0000 Du        
    813 ****       -13.5000   9.2500  72.2500 Du        
    814 ****       -13.5000   9.5000  70.7500 Du        
    815 ****       -13.5000   9.5000  71.0000 Du        
    816 ****       -13.5000   9.5000  71.2500 Du        
    817 ****       -13.5000   9.5000  71.5000 Du        
    818 ****       -13.5000   9.5000  71.7500 Du        
    819 ****       -13.5000   9.5000  72.0000 Du        
    820 ****       -13.5000   9.7500  71.0000 Du        
    821 ****       -13.5000   9.7500  71.2500 Du        
    822 ****       -13.5000   9.7500  71.5000 Du        
    823 ****       -13.5000   9.7500  71.7500 Du        
    824 ****       -13.5000   9.7500  72.0000 Du        
    825 ****       -13.5000  10.0000  71.0000 Du        
    826 ****       -13.5000  10.0000  71.2500 Du        
    827 ****       -13.5000  10.0000  71.5000 Du        
    828 ****       -13.5000  10.0000  71.7500 Du        
    829 ****       -13.5000  10.0000  72.0000 Du        
    830 ****       -13.5000  10.2500  71.5000 Du        
    831 ****       -13.5000  10.2500  71.7500 Du        
    832 ****       -13.5000  13.0000  71.7500 Du        
    833 ****       -13.5000  13.0000  72.0000 Du        
    834 ****       -13.5000  13.0000  72.2500 Du        
    835 ****       -13.5000  13.0000  72.5000 Du        
    836 ****       -13.5000  13.2500  71.7500 Du        
    837 ****       -13.5000  13.2500  72.0000 Du        
    838 ****       -13.5000  13.2500  72.2500 Du        
    839 ****       -13.5000  13.2500  72.5000 Du        
    840 ****       -13.5000  13.2500  72.7500 Du        
    841 ****       -13.5000  13.5000  71.7500 Du        
    842 ****       -13.5000  13.5000  72.0000 Du        
    843 ****       -13.5000  13.5000  72.2500 Du        
    844 ****       -13.5000  13.5000  72.5000 Du        
    845 ****       -13.5000  13.5000  72.7500 Du        
    846 ****       -13.5000  13.7500  71.5000 Du        
    847 ****       -13.5000  13.7500  71.7500 Du        
    848 ****       -13.5000  13.7500  72.0000 Du        
    849 ****       -13.5000  13.7500  72.2500 Du        
    850 ****       -13.5000  13.7500  72.5000 Du        
    851 ****       -13.5000  13.7500  72.7500 Du        
    852 ****       -13.5000  13.7500  73.0000 Du        
    853 ****       -13.5000  14.0000  71.5000 Du        
    854 ****       -13.5000  14.0000  71.7500 Du        
    855 ****       -13.5000  14.0000  72.0000 Du        
    856 ****       -13.5000  14.0000  72.2500 Du        
    857 ****       -13.5000  14.0000  72.5000 Du        
    858 ****       -13.5000  14.0000  72.7500 Du        
    859 ****       -13.5000  14.0000  73.0000 Du        
    860 ****       -13.5000  14.2500  71.2500 Du        
    861 ****       -13.5000  14.2500  71.5000 Du        
    862 ****       -13.5000  14.2500  71.7500 Du        
    863 ****       -13.5000  14.2500  72.0000 Du        
    864 ****       -13.5000  14.2500  72.2500 Du        
    865 ****       -13.5000  14.2500  72.5000 Du        
    866 ****       -13.5000  14.2500  72.7500 Du        
    867 ****       -13.5000  14.2500  73.0000 Du        
    868 ****       -13.5000  14.2500  73.2500 Du        
    869 ****       -13.5000  14.5000  71.0000 Du        
    870 ****       -13.5000  14.5000  71.2500 Du        
    871 ****       -13.5000  14.5000  71.5000 Du        
    872 ****       -13.5000  14.5000  71.7500 Du        
    873 ****       -13.5000  14.5000  72.0000 Du        
    874 ****       -13.5000  14.5000  72.2500 Du        
    875 ****       -13.5000  14.5000  72.5000 Du        
    876 ****       -13.5000  14.5000  72.7500 Du        
    877 ****       -13.5000  14.5000  73.0000 Du        
    878 ****       -13.5000  14.5000  73.2500 Du        
    879 ****       -13.5000  14.7500  70.7500 Du        
    880 ****       -13.5000  14.7500  71.0000 Du        
    881 ****       -13.5000  14.7500  71.2500 Du        
    882 ****       -13.5000  14.7500  71.5000 Du        
    883 ****       -13.5000  14.7500  71.7500 Du        
    884 ****       -13.5000  14.7500  72.0000 Du        
    885 ****       -13.5000  14.7500  72.2500 Du        
    886 ****       -13.5000  14.7500  72.5000 Du        
    887 ****       -13.5000  14.7500  72.7500 Du        
    888 ****       -13.5000  14.7500  73.0000 Du        
    889 ****       -13.5000  14.7500  73.2500 Du        
    890 ****       -13.5000  14.7500  73.5000 Du        
    891 ****       -13.5000  15.0000  70.7500 Du        
    892 ****       -13.5000  15.0000  71.0000 Du        
    893 ****       -13.5000  15.0000  71.2500 Du        
    894 ****       -13.5000  15.0000  71.5000 Du        
    895 ****       -13.5000  15.0000  71.7500 Du        
    896 ****       -13.5000  15.0000  72.0000 Du        
    897 ****       -13.5000  15.0000  72.2500 Du        
    898 ****       -13.5000  15.0000  72.5000 Du        
    899 ****       -13.5000  15.0000  72.7500 Du        
    900 ****       -13.5000  15.0000  73.0000 Du        
    901 ****       -13.5000  15.0000  73.2500 Du        
    902 ****       -13.5000  15.0000  73.5000 Du        
    903 ****       -13.5000  15.2500  70.5000 Du        
    904 ****       -13.5000  15.2500  70.7500 Du        
    905 ****       -13.5000  15.2500  71.0000 Du        
    906 ****       -13.5000  15.2500  71.2500 Du        
    907 ****       -13.5000  15.2500  71.5000 Du        
    908 ****       -13.5000  15.2500  71.7500 Du        
    909 ****       -13.5000  15.2500  72.0000 Du        
    910 ****       -13.5000  15.2500  72.2500 Du        
    911 ****       -13.5000  15.2500  72.5000 Du        
    912 ****       -13.5000  15.2500  72.7500 Du        
    913 ****       -13.5000  15.2500  73.0000 Du        
    914 ****       -13.5000  15.2500  73.2500 Du        
    915 ****       -13.5000  15.2500  73.5000 Du        
    916 ****       -13.5000  15.2500  73.7500 Du        
    917 ****       -13.5000  15.5000  70.5000 Du        
    918 ****       -13.5000  15.5000  70.7500 Du        
    919 ****       -13.5000  15.5000  71.0000 Du        
    920 ****       -13.5000  15.5000  71.2500 Du        
    921 ****       -13.5000  15.5000  71.5000 Du        
    922 ****       -13.5000  15.5000  71.7500 Du        
    923 ****       -13.5000  15.5000  72.0000 Du        
    924 ****       -13.5000  15.5000  72.2500 Du        
    925 ****       -13.5000  15.5000  72.5000 Du        
    926 ****       -13.5000  15.5000  72.7500 Du        
    927 ****       -13.5000  15.5000  73.0000 Du        
    928 ****       -13.5000  15.5000  73.2500 Du        
    929 ****       -13.5000  15.5000  73.5000 Du        
    930 ****       -13.5000  15.5000  73.7500 Du        
    931 ****       -13.5000  15.7500  70.7500 Du        
    932 ****       -13.5000  15.7500  71.0000 Du        
    933 ****       -13.5000  15.7500  71.2500 Du        
    934 ****       -13.5000  15.7500  71.5000 Du        
    935 ****       -13.5000  15.7500  71.7500 Du        
    936 ****       -13.5000  15.7500  72.0000 Du        
    937 ****       -13.5000  15.7500  72.2500 Du        
    938 ****       -13.5000  15.7500  72.5000 Du        
    939 ****       -13.5000  15.7500  72.7500 Du        
    940 ****       -13.5000  15.7500  73.0000 Du        
    941 ****       -13.5000  15.7500  73.2500 Du        
    942 ****       -13.5000  15.7500  73.5000 Du        
    943 ****       -13.5000  15.7500  73.7500 Du        
    944 ****       -13.5000  16.0000  71.2500 Du        
    945 ****       -13.5000  16.0000  71.5000 Du        
    946 ****       -13.5000  16.0000  71.7500 Du        
    947 ****       -13.5000  16.0000  72.0000 Du        
    948 ****       -13.5000  16.0000  72.2500 Du        
    949 ****       -13.5000  16.0000  72.5000 Du        
    950 ****       -13.5000  16.0000  72.7500 Du        
    951 ****       -13.5000  16.0000  73.0000 Du        
    952 ****       -13.5000  16.0000  73.2500 Du        
    953 ****       -13.5000  16.0000  73.5000 Du        
    954 ****       -13.5000  16.0000  73.7500 Du        
    955 ****       -13.5000  16.2500  72.2500 Du        
    956 ****       -13.5000  16.2500  72.5000 Du        
    957 ****       -13.5000  16.2500  72.7500 Du        
    958 ****       -13.5000  16.2500  73.0000 Du        
    959 ****       -13.5000  16.2500  73.2500 Du        
    960 ****       -13.5000  16.2500  73.5000 Du        
    961 ****       -13.5000  16.2500  73.7500 Du        
    962 ****       -13.2500   6.7500  72.0000 Du        
    963 ****       -13.2500   6.7500  72.2500 Du        
    964 ****       -13.2500   7.0000  71.7500 Du        
    965 ****       -13.2500   7.0000  72.0000 Du        
    966 ****       -13.2500   7.0000  72.2500 Du        
    967 ****       -13.2500   7.2500  71.2500 Du        
    968 ****       -13.2500   7.2500  71.5000 Du        
    969 ****       -13.2500   7.2500  71.7500 Du        
    970 ****       -13.2500   7.2500  72.0000 Du        
    971 ****       -13.2500   7.2500  72.2500 Du        
    972 ****       -13.2500   7.5000  71.0000 Du        
    973 ****       -13.2500   7.5000  71.2500 Du        
    974 ****       -13.2500   7.5000  71.5000 Du        
    975 ****       -13.2500   7.5000  71.7500 Du        
    976 ****       -13.2500   7.5000  72.0000 Du        
    977 ****       -13.2500   7.5000  72.2500 Du        
    978 ****       -13.2500   7.5000  72.5000 Du        
    979 ****       -13.2500   7.7500  71.0000 Du        
    980 ****       -13.2500   7.7500  71.2500 Du        
    981 ****       -13.2500   7.7500  71.5000 Du        
    982 ****       -13.2500   7.7500  71.7500 Du        
    983 ****       -13.2500   7.7500  72.0000 Du        
    984 ****       -13.2500   7.7500  72.2500 Du        
    985 ****       -13.2500   7.7500  72.5000 Du        
    986 ****       -13.2500   8.0000  70.7500 Du        
    987 ****       -13.2500   8.0000  71.0000 Du        
    988 ****       -13.2500   8.0000  71.2500 Du        
    989 ****       -13.2500   8.0000  71.5000 Du        
    990 ****       -13.2500   8.0000  71.7500 Du        
    991 ****       -13.2500   8.0000  72.0000 Du        
    992 ****       -13.2500   8.0000  72.2500 Du        
    993 ****       -13.2500   8.0000  72.5000 Du        
    994 ****       -13.2500   8.2500  70.7500 Du        
    995 ****       -13.2500   8.2500  71.0000 Du        
    996 ****       -13.2500   8.2500  71.2500 Du        
    997 ****       -13.2500   8.2500  71.5000 Du        
    998 ****       -13.2500   8.2500  71.7500 Du        
    999 ****       -13.2500   8.2500  72.0000 Du        
   1000 ****       -13.2500   8.2500  72.2500 Du        
   1001 ****       -13.2500   8.2500  72.5000 Du        
   1002 ****       -13.2500   8.2500  72.7500 Du        
   1003 ****       -13.2500   8.5000  70.7500 Du        
   1004 ****       -13.2500   8.5000  71.0000 Du        
   1005 ****       -13.2500   8.5000  71.2500 Du        
   1006 ****       -13.2500   8.5000  71.5000 Du        
   1007 ****       -13.2500   8.5000  71.7500 Du        
   1008 ****       -13.2500   8.5000  72.0000 Du        
   1009 ****       -13.2500   8.5000  72.2500 Du        
   1010 ****       -13.2500   8.5000  72.5000 Du        
   1011 ****       -13.2500   8.7500  70.7500 Du        
   1012 ****       -13.2500   8.7500  71.0000 Du        
   1013 ****       -13.2500   8.7500  71.2500 Du        
   1014 ****       -13.2500   8.7500  71.5000 Du        
   1015 ****       -13.2500   8.7500  71.7500 Du        
   1016 ****       -13.2500   8.7500  72.0000 Du        
   1017 ****       -13.2500   8.7500  72.2500 Du        
   1018 ****       -13.2500   8.7500  72.5000 Du        
   1019 ****       -13.2500   9.0000  70.7500 Du        
   1020 ****       -13.2500   9.0000  71.0000 Du        
   1021 ****       -13.2500   9.0000  71.2500 Du        
   1022 ****       -13.2500   9.0000  71.5000 Du        
   1023 ****       -13.2500   9.0000  71.7500 Du        
   1024 ****       -13.2500   9.0000  72.0000 Du        
   1025 ****       -13.2500   9.0000  72.2500 Du        
   1026 ****       -13.2500   9.2500  70.7500 Du        
   1027 ****       -13.2500   9.2500  71.0000 Du        
   1028 ****       -13.2500   9.2500  71.2500 Du        
   1029 ****       -13.2500   9.2500  71.5000 Du        
   1030 ****       -13.2500   9.2500  71.7500 Du        
   1031 ****       -13.2500   9.2500  72.0000 Du        
   1032 ****       -13.2500   9.2500  72.2500 Du        
   1033 ****       -13.2500   9.5000  70.7500 Du        
   1034 ****       -13.2500   9.5000  71.0000 Du        
   1035 ****       -13.2500   9.5000  71.2500 Du        
   1036 ****       -13.2500   9.5000  71.5000 Du        
   1037 ****       -13.2500   9.5000  71.7500 Du        
   1038 ****       -13.2500   9.5000  72.0000 Du        
   1039 ****       -13.2500   9.7500  70.7500 Du        
   1040 ****       -13.2500   9.7500  71.0000 Du        
   1041 ****       -13.2500   9.7500  71.2500 Du        
   1042 ****       -13.2500   9.7500  71.5000 Du        
   1043 ****       -13.2500   9.7500  71.7500 Du        
   1044 ****       -13.2500   9.7500  72.0000 Du        
   1045 ****       -13.2500  10.0000  71.0000 Du        
   1046 ****       -13.2500  10.0000  71.2500 Du        
   1047 ****       -13.2500  10.0000  71.5000 Du        
   1048 ****       -13.2500  10.0000  71.7500 Du        
   1049 ****       -13.2500  10.2500  71.0000 Du        
   1050 ****       -13.2500  10.2500  71.2500 Du        
   1051 ****       -13.2500  10.2500  71.5000 Du        
   1052 ****       -13.2500  10.2500  71.7500 Du        
   1053 ****       -13.2500  10.5000  71.2500 Du        
   1054 ****       -13.2500  10.5000  71.5000 Du        
   1055 ****       -13.2500  13.0000  64.7500 Du        
   1056 ****       -13.2500  13.0000  71.7500 Du        
   1057 ****       -13.2500  13.0000  72.0000 Du        
   1058 ****       -13.2500  13.2500  71.5000 Du        
   1059 ****       -13.2500  13.2500  71.7500 Du        
   1060 ****       -13.2500  13.2500  72.0000 Du        
   1061 ****       -13.2500  13.2500  72.2500 Du        
   1062 ****       -13.2500  13.5000  71.5000 Du        
   1063 ****       -13.2500  13.5000  71.7500 Du        
   1064 ****       -13.2500  13.5000  72.0000 Du        
   1065 ****       -13.2500  13.5000  72.2500 Du        
   1066 ****       -13.2500  13.5000  72.5000 Du        
   1067 ****       -13.2500  13.5000  72.7500 Du        
   1068 ****       -13.2500  13.7500  71.2500 Du        
   1069 ****       -13.2500  13.7500  71.5000 Du        
   1070 ****       -13.2500  13.7500  71.7500 Du        
   1071 ****       -13.2500  13.7500  72.0000 Du        
   1072 ****       -13.2500  13.7500  72.2500 Du        
   1073 ****       -13.2500  13.7500  72.5000 Du        
   1074 ****       -13.2500  13.7500  72.7500 Du        
   1075 ****       -13.2500  13.7500  73.0000 Du        
   1076 ****       -13.2500  14.0000  71.2500 Du        
   1077 ****       -13.2500  14.0000  71.5000 Du        
   1078 ****       -13.2500  14.0000  71.7500 Du        
   1079 ****       -13.2500  14.0000  72.0000 Du        
   1080 ****       -13.2500  14.0000  72.2500 Du        
   1081 ****       -13.2500  14.0000  72.5000 Du        
   1082 ****       -13.2500  14.0000  72.7500 Du        
   1083 ****       -13.2500  14.0000  73.0000 Du        
   1084 ****       -13.2500  14.0000  73.2500 Du        
   1085 ****       -13.2500  14.2500  71.0000 Du        
   1086 ****       -13.2500  14.2500  71.2500 Du        
   1087 ****       -13.2500  14.2500  71.5000 Du        
   1088 ****       -13.2500  14.2500  71.7500 Du        
   1089 ****       -13.2500  14.2500  72.0000 Du        
   1090 ****       -13.2500  14.2500  72.2500 Du        
   1091 ****       -13.2500  14.2500  72.5000 Du        
   1092 ****       -13.2500  14.2500  72.7500 Du        
   1093 ****       -13.2500  14.2500  73.0000 Du        
   1094 ****       -13.2500  14.2500  73.2500 Du        
   1095 ****       -13.2500  14.5000  70.7500 Du        
   1096 ****       -13.2500  14.5000  71.0000 Du        
   1097 ****       -13.2500  14.5000  71.2500 Du        
   1098 ****       -13.2500  14.5000  71.5000 Du        
   1099 ****       -13.2500  14.5000  71.7500 Du        
   1100 ****       -13.2500  14.5000  72.0000 Du        
   1101 ****       -13.2500  14.5000  72.2500 Du        
   1102 ****       -13.2500  14.5000  72.5000 Du        
   1103 ****       -13.2500  14.5000  72.7500 Du        
   1104 ****       -13.2500  14.5000  73.0000 Du        
   1105 ****       -13.2500  14.5000  73.2500 Du        
   1106 ****       -13.2500  14.7500  70.5000 Du        
   1107 ****       -13.2500  14.7500  70.7500 Du        
   1108 ****       -13.2500  14.7500  71.0000 Du        
   1109 ****       -13.2500  14.7500  71.2500 Du        
   1110 ****       -13.2500  14.7500  71.5000 Du        
   1111 ****       -13.2500  14.7500  71.7500 Du        
   1112 ****       -13.2500  14.7500  72.0000 Du        
   1113 ****       -13.2500  14.7500  72.2500 Du        
   1114 ****       -13.2500  14.7500  72.5000 Du        
   1115 ****       -13.2500  14.7500  72.7500 Du        
   1116 ****       -13.2500  14.7500  73.0000 Du        
   1117 ****       -13.2500  14.7500  73.2500 Du        
   1118 ****       -13.2500  14.7500  73.5000 Du        
   1119 ****       -13.2500  15.0000  70.5000 Du        
   1120 ****       -13.2500  15.0000  70.7500 Du        
   1121 ****       -13.2500  15.0000  71.0000 Du        
   1122 ****       -13.2500  15.0000  71.2500 Du        
   1123 ****       -13.2500  15.0000  71.5000 Du        
   1124 ****       -13.2500  15.0000  71.7500 Du        
   1125 ****       -13.2500  15.0000  72.0000 Du        
   1126 ****       -13.2500  15.0000  72.2500 Du        
   1127 ****       -13.2500  15.0000  72.5000 Du        
   1128 ****       -13.2500  15.0000  72.7500 Du        
   1129 ****       -13.2500  15.0000  73.0000 Du        
   1130 ****       -13.2500  15.0000  73.2500 Du        
   1131 ****       -13.2500  15.0000  73.5000 Du        
   1132 ****       -13.2500  15.0000  73.7500 Du        
   1133 ****       -13.2500  15.2500  70.2500 Du        
   1134 ****       -13.2500  15.2500  70.5000 Du        
   1135 ****       -13.2500  15.2500  70.7500 Du        
   1136 ****       -13.2500  15.2500  71.0000 Du        
   1137 ****       -13.2500  15.2500  71.2500 Du        
   1138 ****       -13.2500  15.2500  71.5000 Du        
   1139 ****       -13.2500  15.2500  71.7500 Du        
   1140 ****       -13.2500  15.2500  72.0000 Du        
   1141 ****       -13.2500  15.2500  72.2500 Du        
   1142 ****       -13.2500  15.2500  72.5000 Du        
   1143 ****       -13.2500  15.2500  72.7500 Du        
   1144 ****       -13.2500  15.2500  73.0000 Du        
   1145 ****       -13.2500  15.2500  73.2500 Du        
   1146 ****       -13.2500  15.2500  73.5000 Du        
   1147 ****       -13.2500  15.2500  73.7500 Du        
   1148 ****       -13.2500  15.5000  70.2500 Du        
   1149 ****       -13.2500  15.5000  70.5000 Du        
   1150 ****       -13.2500  15.5000  70.7500 Du        
   1151 ****       -13.2500  15.5000  71.0000 Du        
   1152 ****       -13.2500  15.5000  71.2500 Du        
   1153 ****       -13.2500  15.5000  71.5000 Du        
   1154 ****       -13.2500  15.5000  71.7500 Du        
   1155 ****       -13.2500  15.5000  72.0000 Du        
   1156 ****       -13.2500  15.5000  72.2500 Du        
   1157 ****       -13.2500  15.5000  72.5000 Du        
   1158 ****       -13.2500  15.5000  72.7500 Du        
   1159 ****       -13.2500  15.5000  73.0000 Du        
   1160 ****       -13.2500  15.5000  73.2500 Du        
   1161 ****       -13.2500  15.5000  73.5000 Du        
   1162 ****       -13.2500  15.5000  73.7500 Du        
   1163 ****       -13.2500  15.5000  74.0000 Du        
   1164 ****       -13.2500  15.7500  70.5000 Du        
   1165 ****       -13.2500  15.7500  70.7500 Du        
   1166 ****       -13.2500  15.7500  71.0000 Du        
   1167 ****       -13.2500  15.7500  71.2500 Du        
   1168 ****       -13.2500  15.7500  71.5000 Du        
   1169 ****       -13.2500  15.7500  71.7500 Du        
   1170 ****       -13.2500  15.7500  72.0000 Du        
   1171 ****       -13.2500  15.7500  72.2500 Du        
   1172 ****       -13.2500  15.7500  72.5000 Du        
   1173 ****       -13.2500  15.7500  72.7500 Du        
   1174 ****       -13.2500  15.7500  73.0000 Du        
   1175 ****       -13.2500  15.7500  73.2500 Du        
   1176 ****       -13.2500  15.7500  73.5000 Du        
   1177 ****       -13.2500  15.7500  73.7500 Du        
   1178 ****       -13.2500  15.7500  74.0000 Du        
   1179 ****       -13.2500  16.0000  71.0000 Du        
   1180 ****       -13.2500  16.0000  71.2500 Du        
   1181 ****       -13.2500  16.0000  71.5000 Du        
   1182 ****       -13.2500  16.0000  71.7500 Du        
   1183 ****       -13.2500  16.0000  72.0000 Du        
   1184 ****       -13.2500  16.0000  72.2500 Du        
   1185 ****       -13.2500  16.0000  72.5000 Du        
   1186 ****       -13.2500  16.0000  72.7500 Du        
   1187 ****       -13.2500  16.0000  73.0000 Du        
   1188 ****       -13.2500  16.0000  73.2500 Du        
   1189 ****       -13.2500  16.0000  73.5000 Du        
   1190 ****       -13.2500  16.0000  73.7500 Du        
   1191 ****       -13.2500  16.0000  74.0000 Du        
   1192 ****       -13.2500  16.0000  74.2500 Du        
   1193 ****       -13.2500  16.2500  72.0000 Du        
   1194 ****       -13.2500  16.2500  72.2500 Du        
   1195 ****       -13.2500  16.2500  72.5000 Du        
   1196 ****       -13.2500  16.2500  72.7500 Du        
   1197 ****       -13.2500  16.2500  73.0000 Du        
   1198 ****       -13.2500  16.2500  73.2500 Du        
   1199 ****       -13.2500  16.2500  73.5000 Du        
   1200 ****       -13.2500  16.2500  73.7500 Du        
   1201 ****       -13.2500  16.2500  74.0000 Du        
   1202 ****       -13.2500  16.5000  73.2500 Du        
   1203 ****       -13.2500  16.5000  73.5000 Du        
   1204 ****       -13.0000   6.7500  71.7500 Du        
   1205 ****       -13.0000   6.7500  72.0000 Du        
   1206 ****       -13.0000   6.7500  72.2500 Du        
   1207 ****       -13.0000   7.0000  71.5000 Du        
   1208 ****       -13.0000   7.0000  71.7500 Du        
   1209 ****       -13.0000   7.0000  72.0000 Du        
   1210 ****       -13.0000   7.0000  72.2500 Du        
   1211 ****       -13.0000   7.2500  71.0000 Du        
   1212 ****       -13.0000   7.2500  71.2500 Du        
   1213 ****       -13.0000   7.2500  71.5000 Du        
   1214 ****       -13.0000   7.2500  71.7500 Du        
   1215 ****       -13.0000   7.2500  72.0000 Du        
   1216 ****       -13.0000   7.2500  72.2500 Du        
   1217 ****       -13.0000   7.2500  72.5000 Du        
   1218 ****       -13.0000   7.5000  70.7500 Du        
   1219 ****       -13.0000   7.5000  71.0000 Du        
   1220 ****       -13.0000   7.5000  71.2500 Du        
   1221 ****       -13.0000   7.5000  71.5000 Du        
   1222 ****       -13.0000   7.5000  71.7500 Du        
   1223 ****       -13.0000   7.5000  72.0000 Du        
   1224 ****       -13.0000   7.5000  72.2500 Du        
   1225 ****       -13.0000   7.5000  72.5000 Du        
   1226 ****       -13.0000   7.7500  70.7500 Du        
   1227 ****       -13.0000   7.7500  71.0000 Du        
   1228 ****       -13.0000   7.7500  71.2500 Du        
   1229 ****       -13.0000   7.7500  71.5000 Du        
   1230 ****       -13.0000   7.7500  71.7500 Du        
   1231 ****       -13.0000   7.7500  72.0000 Du        
   1232 ****       -13.0000   7.7500  72.2500 Du        
   1233 ****       -13.0000   7.7500  72.5000 Du        
   1234 ****       -13.0000   8.0000  70.7500 Du        
   1235 ****       -13.0000   8.0000  71.0000 Du        
   1236 ****       -13.0000   8.0000  71.2500 Du        
   1237 ****       -13.0000   8.0000  71.5000 Du        
   1238 ****       -13.0000   8.0000  71.7500 Du        
   1239 ****       -13.0000   8.0000  72.0000 Du        
   1240 ****       -13.0000   8.0000  72.2500 Du        
   1241 ****       -13.0000   8.0000  72.5000 Du        
   1242 ****       -13.0000   8.2500  70.7500 Du        
   1243 ****       -13.0000   8.2500  71.0000 Du        
   1244 ****       -13.0000   8.2500  71.2500 Du        
   1245 ****       -13.0000   8.2500  71.5000 Du        
   1246 ****       -13.0000   8.2500  71.7500 Du        
   1247 ****       -13.0000   8.2500  72.0000 Du        
   1248 ****       -13.0000   8.2500  72.2500 Du        
   1249 ****       -13.0000   8.2500  72.5000 Du        
   1250 ****       -13.0000   8.5000  70.7500 Du        
   1251 ****       -13.0000   8.5000  71.0000 Du        
   1252 ****       -13.0000   8.5000  71.2500 Du        
   1253 ****       -13.0000   8.5000  71.5000 Du        
   1254 ****       -13.0000   8.5000  71.7500 Du        
   1255 ****       -13.0000   8.5000  72.0000 Du        
   1256 ****       -13.0000   8.5000  72.2500 Du        
   1257 ****       -13.0000   8.5000  72.5000 Du        
   1258 ****       -13.0000   8.7500  70.7500 Du        
   1259 ****       -13.0000   8.7500  71.0000 Du        
   1260 ****       -13.0000   8.7500  71.2500 Du        
   1261 ****       -13.0000   8.7500  71.5000 Du        
   1262 ****       -13.0000   8.7500  71.7500 Du        
   1263 ****       -13.0000   8.7500  72.0000 Du        
   1264 ****       -13.0000   8.7500  72.2500 Du        
   1265 ****       -13.0000   9.0000  70.7500 Du        
   1266 ****       -13.0000   9.0000  71.0000 Du        
   1267 ****       -13.0000   9.0000  71.2500 Du        
   1268 ****       -13.0000   9.0000  71.5000 Du        
   1269 ****       -13.0000   9.0000  71.7500 Du        
   1270 ****       -13.0000   9.0000  72.0000 Du        
   1271 ****       -13.0000   9.0000  72.2500 Du        
   1272 ****       -13.0000   9.2500  70.7500 Du        
   1273 ****       -13.0000   9.2500  71.0000 Du        
   1274 ****       -13.0000   9.2500  71.2500 Du        
   1275 ****       -13.0000   9.2500  71.5000 Du        
   1276 ****       -13.0000   9.2500  71.7500 Du        
   1277 ****       -13.0000   9.2500  72.0000 Du        
   1278 ****       -13.0000   9.5000  70.7500 Du        
   1279 ****       -13.0000   9.5000  71.0000 Du        
   1280 ****       -13.0000   9.5000  71.2500 Du        
   1281 ****       -13.0000   9.5000  71.5000 Du        
   1282 ****       -13.0000   9.5000  71.7500 Du        
   1283 ****       -13.0000   9.7500  70.5000 Du        
   1284 ****       -13.0000   9.7500  70.7500 Du        
   1285 ****       -13.0000   9.7500  71.0000 Du        
   1286 ****       -13.0000   9.7500  71.2500 Du        
   1287 ****       -13.0000   9.7500  71.5000 Du        
   1288 ****       -13.0000   9.7500  71.7500 Du        
   1289 ****       -13.0000  10.0000  70.7500 Du        
   1290 ****       -13.0000  10.0000  71.0000 Du        
   1291 ****       -13.0000  10.0000  71.2500 Du        
   1292 ****       -13.0000  10.0000  71.5000 Du        
   1293 ****       -13.0000  10.0000  71.7500 Du        
   1294 ****       -13.0000  10.2500  70.7500 Du        
   1295 ****       -13.0000  10.2500  71.0000 Du        
   1296 ****       -13.0000  10.2500  71.2500 Du        
   1297 ****       -13.0000  10.2500  71.5000 Du        
   1298 ****       -13.0000  10.5000  71.0000 Du        
   1299 ****       -13.0000  10.5000  71.2500 Du        
   1300 ****       -13.0000  10.5000  71.5000 Du        
   1301 ****       -13.0000  12.2500  63.7500 Du        
   1302 ****       -13.0000  12.5000  63.5000 Du        
   1303 ****       -13.0000  12.5000  63.7500 Du        
   1304 ****       -13.0000  12.5000  64.0000 Du        
   1305 ****       -13.0000  12.5000  64.2500 Du        
   1306 ****       -13.0000  12.5000  64.5000 Du        
   1307 ****       -13.0000  12.5000  64.7500 Du        
   1308 ****       -13.0000  12.7500  63.5000 Du        
   1309 ****       -13.0000  12.7500  63.7500 Du        
   1310 ****       -13.0000  12.7500  64.0000 Du        
   1311 ****       -13.0000  12.7500  64.2500 Du        
   1312 ****       -13.0000  12.7500  64.5000 Du        
   1313 ****       -13.0000  12.7500  64.7500 Du        
   1314 ****       -13.0000  12.7500  65.0000 Du        
   1315 ****       -13.0000  13.0000  63.7500 Du        
   1316 ****       -13.0000  13.0000  64.0000 Du        
   1317 ****       -13.0000  13.0000  64.2500 Du        
   1318 ****       -13.0000  13.0000  64.5000 Du        
   1319 ****       -13.0000  13.0000  64.7500 Du        
   1320 ****       -13.0000  13.0000  65.0000 Du        
   1321 ****       -13.0000  13.2500  64.0000 Du        
   1322 ****       -13.0000  13.2500  64.2500 Du        
   1323 ****       -13.0000  13.2500  64.5000 Du        
   1324 ****       -13.0000  13.2500  64.7500 Du        
   1325 ****       -13.0000  13.2500  65.0000 Du        
   1326 ****       -13.0000  13.2500  71.5000 Du        
   1327 ****       -13.0000  13.5000  64.0000 Du        
   1328 ****       -13.0000  13.5000  64.2500 Du        
   1329 ****       -13.0000  13.5000  64.5000 Du        
   1330 ****       -13.0000  13.5000  64.7500 Du        
   1331 ****       -13.0000  13.5000  65.0000 Du        
   1332 ****       -13.0000  13.5000  71.2500 Du        
   1333 ****       -13.0000  13.5000  71.5000 Du        
   1334 ****       -13.0000  13.5000  71.7500 Du        
   1335 ****       -13.0000  13.5000  72.0000 Du        
   1336 ****       -13.0000  13.7500  64.2500 Du        
   1337 ****       -13.0000  13.7500  64.5000 Du        
   1338 ****       -13.0000  13.7500  64.7500 Du        
   1339 ****       -13.0000  13.7500  65.0000 Du        
   1340 ****       -13.0000  13.7500  65.2500 Du        
   1341 ****       -13.0000  13.7500  71.0000 Du        
   1342 ****       -13.0000  13.7500  71.2500 Du        
   1343 ****       -13.0000  13.7500  71.5000 Du        
   1344 ****       -13.0000  13.7500  71.7500 Du        
   1345 ****       -13.0000  13.7500  72.0000 Du        
   1346 ****       -13.0000  13.7500  72.2500 Du        
   1347 ****       -13.0000  13.7500  72.5000 Du        
   1348 ****       -13.0000  13.7500  72.7500 Du        
   1349 ****       -13.0000  14.0000  64.2500 Du        
   1350 ****       -13.0000  14.0000  64.5000 Du        
   1351 ****       -13.0000  14.0000  64.7500 Du        
   1352 ****       -13.0000  14.0000  65.0000 Du        
   1353 ****       -13.0000  14.0000  70.7500 Du        
   1354 ****       -13.0000  14.0000  71.0000 Du        
   1355 ****       -13.0000  14.0000  71.2500 Du        
   1356 ****       -13.0000  14.0000  71.5000 Du        
   1357 ****       -13.0000  14.0000  71.7500 Du        
   1358 ****       -13.0000  14.0000  72.0000 Du        
   1359 ****       -13.0000  14.0000  72.2500 Du        
   1360 ****       -13.0000  14.0000  72.5000 Du        
   1361 ****       -13.0000  14.0000  72.7500 Du        
   1362 ****       -13.0000  14.0000  73.0000 Du        
   1363 ****       -13.0000  14.2500  70.7500 Du        
   1364 ****       -13.0000  14.2500  71.0000 Du        
   1365 ****       -13.0000  14.2500  71.2500 Du        
   1366 ****       -13.0000  14.2500  71.5000 Du        
   1367 ****       -13.0000  14.2500  71.7500 Du        
   1368 ****       -13.0000  14.2500  72.0000 Du        
   1369 ****       -13.0000  14.2500  72.2500 Du        
   1370 ****       -13.0000  14.2500  72.5000 Du        
   1371 ****       -13.0000  14.2500  72.7500 Du        
   1372 ****       -13.0000  14.2500  73.0000 Du        
   1373 ****       -13.0000  14.2500  73.2500 Du        
   1374 ****       -13.0000  14.5000  70.5000 Du        
   1375 ****       -13.0000  14.5000  70.7500 Du        
   1376 ****       -13.0000  14.5000  71.0000 Du        
   1377 ****       -13.0000  14.5000  71.2500 Du        
   1378 ****       -13.0000  14.5000  71.5000 Du        
   1379 ****       -13.0000  14.5000  71.7500 Du        
   1380 ****       -13.0000  14.5000  72.0000 Du        
   1381 ****       -13.0000  14.5000  72.2500 Du        
   1382 ****       -13.0000  14.5000  72.5000 Du        
   1383 ****       -13.0000  14.5000  72.7500 Du        
   1384 ****       -13.0000  14.5000  73.0000 Du        
   1385 ****       -13.0000  14.5000  73.2500 Du        
   1386 ****       -13.0000  14.5000  73.5000 Du        
   1387 ****       -13.0000  14.7500  70.2500 Du        
   1388 ****       -13.0000  14.7500  70.5000 Du        
   1389 ****       -13.0000  14.7500  70.7500 Du        
   1390 ****       -13.0000  14.7500  71.0000 Du        
   1391 ****       -13.0000  14.7500  71.2500 Du        
   1392 ****       -13.0000  14.7500  71.5000 Du        
   1393 ****       -13.0000  14.7500  71.7500 Du        
   1394 ****       -13.0000  14.7500  72.0000 Du        
   1395 ****       -13.0000  14.7500  72.2500 Du        
   1396 ****       -13.0000  14.7500  72.5000 Du        
   1397 ****       -13.0000  14.7500  72.7500 Du        
   1398 ****       -13.0000  14.7500  73.0000 Du        
   1399 ****       -13.0000  14.7500  73.2500 Du        
   1400 ****       -13.0000  14.7500  73.5000 Du        
   1401 ****       -13.0000  15.0000  70.0000 Du        
   1402 ****       -13.0000  15.0000  70.2500 Du        
   1403 ****       -13.0000  15.0000  70.5000 Du        
   1404 ****       -13.0000  15.0000  70.7500 Du        
   1405 ****       -13.0000  15.0000  71.0000 Du        
   1406 ****       -13.0000  15.0000  71.2500 Du        
   1407 ****       -13.0000  15.0000  71.5000 Du        
   1408 ****       -13.0000  15.0000  71.7500 Du        
   1409 ****       -13.0000  15.0000  72.0000 Du        
   1410 ****       -13.0000  15.0000  72.2500 Du        
   1411 ****       -13.0000  15.0000  72.5000 Du        
   1412 ****       -13.0000  15.0000  72.7500 Du        
   1413 ****       -13.0000  15.0000  73.0000 Du        
   1414 ****       -13.0000  15.0000  73.2500 Du        
   1415 ****       -13.0000  15.0000  73.5000 Du        
   1416 ****       -13.0000  15.0000  73.7500 Du        
   1417 ****       -13.0000  15.2500  70.0000 Du        
   1418 ****       -13.0000  15.2500  70.2500 Du        
   1419 ****       -13.0000  15.2500  70.5000 Du        
   1420 ****       -13.0000  15.2500  70.7500 Du        
   1421 ****       -13.0000  15.2500  71.0000 Du        
   1422 ****       -13.0000  15.2500  71.2500 Du        
   1423 ****       -13.0000  15.2500  71.5000 Du        
   1424 ****       -13.0000  15.2500  71.7500 Du        
   1425 ****       -13.0000  15.2500  72.0000 Du        
   1426 ****       -13.0000  15.2500  72.2500 Du        
   1427 ****       -13.0000  15.2500  72.5000 Du        
   1428 ****       -13.0000  15.2500  72.7500 Du        
   1429 ****       -13.0000  15.2500  73.0000 Du        
   1430 ****       -13.0000  15.2500  73.2500 Du        
   1431 ****       -13.0000  15.2500  73.5000 Du        
   1432 ****       -13.0000  15.2500  73.7500 Du        
   1433 ****       -13.0000  15.2500  74.0000 Du        
   1434 ****       -13.0000  15.5000  70.0000 Du        
   1435 ****       -13.0000  15.5000  70.2500 Du        
   1436 ****       -13.0000  15.5000  70.5000 Du        
   1437 ****       -13.0000  15.5000  70.7500 Du        
   1438 ****       -13.0000  15.5000  71.0000 Du        
   1439 ****       -13.0000  15.5000  71.2500 Du        
   1440 ****       -13.0000  15.5000  71.5000 Du        
   1441 ****       -13.0000  15.5000  71.7500 Du        
   1442 ****       -13.0000  15.5000  72.0000 Du        
   1443 ****       -13.0000  15.5000  72.2500 Du        
   1444 ****       -13.0000  15.5000  72.5000 Du        
   1445 ****       -13.0000  15.5000  72.7500 Du        
   1446 ****       -13.0000  15.5000  73.0000 Du        
   1447 ****       -13.0000  15.5000  73.2500 Du        
   1448 ****       -13.0000  15.5000  73.5000 Du        
   1449 ****       -13.0000  15.5000  73.7500 Du        
   1450 ****       -13.0000  15.5000  74.0000 Du        
   1451 ****       -13.0000  15.7500  70.2500 Du        
   1452 ****       -13.0000  15.7500  70.5000 Du        
   1453 ****       -13.0000  15.7500  70.7500 Du        
   1454 ****       -13.0000  15.7500  71.0000 Du        
   1455 ****       -13.0000  15.7500  71.2500 Du        
   1456 ****       -13.0000  15.7500  71.5000 Du        
   1457 ****       -13.0000  15.7500  71.7500 Du        
   1458 ****       -13.0000  15.7500  72.0000 Du        
   1459 ****       -13.0000  15.7500  72.2500 Du        
   1460 ****       -13.0000  15.7500  72.5000 Du        
   1461 ****       -13.0000  15.7500  72.7500 Du        
   1462 ****       -13.0000  15.7500  73.0000 Du        
   1463 ****       -13.0000  15.7500  73.2500 Du        
   1464 ****       -13.0000  15.7500  73.5000 Du        
   1465 ****       -13.0000  15.7500  73.7500 Du        
   1466 ****       -13.0000  15.7500  74.0000 Du        
   1467 ****       -13.0000  15.7500  74.2500 Du        
   1468 ****       -13.0000  16.0000  70.7500 Du        
   1469 ****       -13.0000  16.0000  71.0000 Du        
   1470 ****       -13.0000  16.0000  71.2500 Du        
   1471 ****       -13.0000  16.0000  71.5000 Du        
   1472 ****       -13.0000  16.0000  71.7500 Du        
   1473 ****       -13.0000  16.0000  72.0000 Du        
   1474 ****       -13.0000  16.0000  72.2500 Du        
   1475 ****       -13.0000  16.0000  72.5000 Du        
   1476 ****       -13.0000  16.0000  72.7500 Du        
   1477 ****       -13.0000  16.0000  73.0000 Du        
   1478 ****       -13.0000  16.0000  73.2500 Du        
   1479 ****       -13.0000  16.0000  73.5000 Du        
   1480 ****       -13.0000  16.0000  73.7500 Du        
   1481 ****       -13.0000  16.0000  74.0000 Du        
   1482 ****       -13.0000  16.0000  74.2500 Du        
   1483 ****       -13.0000  16.2500  71.7500 Du        
   1484 ****       -13.0000  16.2500  72.0000 Du        
   1485 ****       -13.0000  16.2500  72.2500 Du        
   1486 ****       -13.0000  16.2500  72.5000 Du        
   1487 ****       -13.0000  16.2500  72.7500 Du        
   1488 ****       -13.0000  16.2500  73.0000 Du        
   1489 ****       -13.0000  16.2500  73.2500 Du        
   1490 ****       -13.0000  16.2500  73.5000 Du        
   1491 ****       -13.0000  16.2500  73.7500 Du        
   1492 ****       -13.0000  16.2500  74.0000 Du        
   1493 ****       -13.0000  16.2500  74.2500 Du        
   1494 ****       -13.0000  16.5000  72.7500 Du        
   1495 ****       -13.0000  16.5000  73.0000 Du        
   1496 ****       -13.0000  16.5000  73.2500 Du        
   1497 ****       -13.0000  16.5000  73.5000 Du        
   1498 ****       -13.0000  16.5000  73.7500 Du        
   1499 ****       -12.7500   6.5000  72.0000 Du        
   1500 ****       -12.7500   6.5000  72.2500 Du        
   1501 ****       -12.7500   6.7500  71.7500 Du        
   1502 ****       -12.7500   6.7500  72.0000 Du        
   1503 ****       -12.7500   6.7500  72.2500 Du        
   1504 ****       -12.7500   7.0000  71.0000 Du        
   1505 ****       -12.7500   7.0000  71.2500 Du        
   1506 ****       -12.7500   7.0000  71.5000 Du        
   1507 ****       -12.7500   7.0000  71.7500 Du        
   1508 ****       -12.7500   7.0000  72.0000 Du        
   1509 ****       -12.7500   7.0000  72.2500 Du        
   1510 ****       -12.7500   7.0000  72.5000 Du        
   1511 ****       -12.7500   7.2500  70.7500 Du        
   1512 ****       -12.7500   7.2500  71.0000 Du        
   1513 ****       -12.7500   7.2500  71.2500 Du        
   1514 ****       -12.7500   7.2500  71.5000 Du        
   1515 ****       -12.7500   7.2500  71.7500 Du        
   1516 ****       -12.7500   7.2500  72.0000 Du        
   1517 ****       -12.7500   7.2500  72.2500 Du        
   1518 ****       -12.7500   7.2500  72.5000 Du        
   1519 ****       -12.7500   7.5000  70.7500 Du        
   1520 ****       -12.7500   7.5000  71.0000 Du        
   1521 ****       -12.7500   7.5000  71.2500 Du        
   1522 ****       -12.7500   7.5000  71.5000 Du        
   1523 ****       -12.7500   7.5000  71.7500 Du        
   1524 ****       -12.7500   7.5000  72.0000 Du        
   1525 ****       -12.7500   7.5000  72.2500 Du        
   1526 ****       -12.7500   7.5000  72.5000 Du        
   1527 ****       -12.7500   7.7500  70.7500 Du        
   1528 ****       -12.7500   7.7500  71.0000 Du        
   1529 ****       -12.7500   7.7500  71.2500 Du        
   1530 ****       -12.7500   7.7500  71.5000 Du        
   1531 ****       -12.7500   7.7500  71.7500 Du        
   1532 ****       -12.7500   7.7500  72.0000 Du        
   1533 ****       -12.7500   7.7500  72.2500 Du        
   1534 ****       -12.7500   7.7500  72.5000 Du        
   1535 ****       -12.7500   8.0000  70.7500 Du        
   1536 ****       -12.7500   8.0000  71.0000 Du        
   1537 ****       -12.7500   8.0000  71.2500 Du        
   1538 ****       -12.7500   8.0000  71.5000 Du        
   1539 ****       -12.7500   8.0000  71.7500 Du        
   1540 ****       -12.7500   8.0000  72.0000 Du        
   1541 ****       -12.7500   8.0000  72.2500 Du        
   1542 ****       -12.7500   8.0000  72.5000 Du        
   1543 ****       -12.7500   8.2500  70.7500 Du        
   1544 ****       -12.7500   8.2500  71.0000 Du        
   1545 ****       -12.7500   8.2500  71.2500 Du        
   1546 ****       -12.7500   8.2500  71.5000 Du        
   1547 ****       -12.7500   8.2500  71.7500 Du        
   1548 ****       -12.7500   8.2500  72.0000 Du        
   1549 ****       -12.7500   8.2500  72.2500 Du        
   1550 ****       -12.7500   8.2500  72.5000 Du        
   1551 ****       -12.7500   8.5000  70.7500 Du        
   1552 ****       -12.7500   8.5000  71.0000 Du        
   1553 ****       -12.7500   8.5000  71.2500 Du        
   1554 ****       -12.7500   8.5000  71.5000 Du        
   1555 ****       -12.7500   8.5000  71.7500 Du        
   1556 ****       -12.7500   8.5000  72.0000 Du        
   1557 ****       -12.7500   8.5000  72.2500 Du        
   1558 ****       -12.7500   8.5000  72.5000 Du        
   1559 ****       -12.7500   8.7500  70.7500 Du        
   1560 ****       -12.7500   8.7500  71.0000 Du        
   1561 ****       -12.7500   8.7500  71.2500 Du        
   1562 ****       -12.7500   8.7500  71.5000 Du        
   1563 ****       -12.7500   8.7500  71.7500 Du        
   1564 ****       -12.7500   8.7500  72.0000 Du        
   1565 ****       -12.7500   8.7500  72.2500 Du        
   1566 ****       -12.7500   9.0000  70.7500 Du        
   1567 ****       -12.7500   9.0000  71.0000 Du        
   1568 ****       -12.7500   9.0000  71.2500 Du        
   1569 ****       -12.7500   9.0000  71.5000 Du        
   1570 ****       -12.7500   9.0000  71.7500 Du        
   1571 ****       -12.7500   9.0000  72.0000 Du        
   1572 ****       -12.7500   9.2500  70.5000 Du        
   1573 ****       -12.7500   9.2500  70.7500 Du        
   1574 ****       -12.7500   9.2500  71.0000 Du        
   1575 ****       -12.7500   9.2500  71.2500 Du        
   1576 ****       -12.7500   9.2500  71.5000 Du        
   1577 ****       -12.7500   9.2500  71.7500 Du        
   1578 ****       -12.7500   9.2500  72.0000 Du        
   1579 ****       -12.7500   9.5000  70.5000 Du        
   1580 ****       -12.7500   9.5000  70.7500 Du        
   1581 ****       -12.7500   9.5000  71.0000 Du        
   1582 ****       -12.7500   9.5000  71.2500 Du        
   1583 ****       -12.7500   9.5000  71.5000 Du        
   1584 ****       -12.7500   9.5000  71.7500 Du        
   1585 ****       -12.7500   9.7500  70.5000 Du        
   1586 ****       -12.7500   9.7500  70.7500 Du        
   1587 ****       -12.7500   9.7500  71.0000 Du        
   1588 ****       -12.7500   9.7500  71.2500 Du        
   1589 ****       -12.7500   9.7500  71.5000 Du        
   1590 ****       -12.7500  10.0000  70.5000 Du        
   1591 ****       -12.7500  10.0000  70.7500 Du        
   1592 ****       -12.7500  10.0000  71.0000 Du        
   1593 ****       -12.7500  10.0000  71.2500 Du        
   1594 ****       -12.7500  10.0000  71.5000 Du        
   1595 ****       -12.7500  10.2500  70.7500 Du        
   1596 ****       -12.7500  10.2500  71.0000 Du        
   1597 ****       -12.7500  10.2500  71.2500 Du        
   1598 ****       -12.7500  10.2500  71.5000 Du        
   1599 ****       -12.7500  10.5000  70.7500 Du        
   1600 ****       -12.7500  10.5000  71.0000 Du        
   1601 ****       -12.7500  10.5000  71.2500 Du        
   1602 ****       -12.7500  10.7500  71.0000 Du        
   1603 ****       -12.7500  12.2500  63.2500 Du        
   1604 ****       -12.7500  12.2500  63.5000 Du        
   1605 ****       -12.7500  12.2500  63.7500 Du        
   1606 ****       -12.7500  12.2500  64.0000 Du        
   1607 ****       -12.7500  12.2500  64.2500 Du        
   1608 ****       -12.7500  12.5000  63.2500 Du        
   1609 ****       -12.7500  12.5000  63.5000 Du        
   1610 ****       -12.7500  12.5000  63.7500 Du        
   1611 ****       -12.7500  12.5000  64.0000 Du        
   1612 ****       -12.7500  12.5000  64.2500 Du        
   1613 ****       -12.7500  12.5000  64.5000 Du        
   1614 ****       -12.7500  12.5000  64.7500 Du        
   1615 ****       -12.7500  12.5000  65.0000 Du        
   1616 ****       -12.7500  12.7500  63.2500 Du        
   1617 ****       -12.7500  12.7500  63.5000 Du        
   1618 ****       -12.7500  12.7500  63.7500 Du        
   1619 ****       -12.7500  12.7500  64.0000 Du        
   1620 ****       -12.7500  12.7500  64.2500 Du        
   1621 ****       -12.7500  12.7500  64.5000 Du        
   1622 ****       -12.7500  12.7500  64.7500 Du        
   1623 ****       -12.7500  12.7500  65.0000 Du        
   1624 ****       -12.7500  12.7500  65.2500 Du        
   1625 ****       -12.7500  13.0000  63.2500 Du        
   1626 ****       -12.7500  13.0000  63.5000 Du        
   1627 ****       -12.7500  13.0000  63.7500 Du        
   1628 ****       -12.7500  13.0000  64.0000 Du        
   1629 ****       -12.7500  13.0000  64.2500 Du        
   1630 ****       -12.7500  13.0000  64.5000 Du        
   1631 ****       -12.7500  13.0000  64.7500 Du        
   1632 ****       -12.7500  13.0000  65.0000 Du        
   1633 ****       -12.7500  13.0000  65.2500 Du        
   1634 ****       -12.7500  13.2500  63.2500 Du        
   1635 ****       -12.7500  13.2500  63.5000 Du        
   1636 ****       -12.7500  13.2500  63.7500 Du        
   1637 ****       -12.7500  13.2500  64.0000 Du        
   1638 ****       -12.7500  13.2500  64.2500 Du        
   1639 ****       -12.7500  13.2500  64.5000 Du        
   1640 ****       -12.7500  13.2500  64.7500 Du        
   1641 ****       -12.7500  13.2500  65.0000 Du        
   1642 ****       -12.7500  13.2500  65.2500 Du        
   1643 ****       -12.7500  13.5000  63.5000 Du        
   1644 ****       -12.7500  13.5000  63.7500 Du        
   1645 ****       -12.7500  13.5000  64.0000 Du        
   1646 ****       -12.7500  13.5000  64.2500 Du        
   1647 ****       -12.7500  13.5000  64.5000 Du        
   1648 ****       -12.7500  13.5000  64.7500 Du        
   1649 ****       -12.7500  13.5000  65.0000 Du        
   1650 ****       -12.7500  13.5000  65.2500 Du        
   1651 ****       -12.7500  13.5000  70.7500 Du        
   1652 ****       -12.7500  13.5000  71.0000 Du        
   1653 ****       -12.7500  13.5000  71.2500 Du        
   1654 ****       -12.7500  13.5000  71.5000 Du        
   1655 ****       -12.7500  13.7500  63.5000 Du        
   1656 ****       -12.7500  13.7500  63.7500 Du        
   1657 ****       -12.7500  13.7500  64.0000 Du        
   1658 ****       -12.7500  13.7500  64.2500 Du        
   1659 ****       -12.7500  13.7500  64.5000 Du        
   1660 ****       -12.7500  13.7500  64.7500 Du        
   1661 ****       -12.7500  13.7500  65.0000 Du        
   1662 ****       -12.7500  13.7500  65.2500 Du        
   1663 ****       -12.7500  13.7500  70.7500 Du        
   1664 ****       -12.7500  13.7500  71.0000 Du        
   1665 ****       -12.7500  13.7500  71.2500 Du        
   1666 ****       -12.7500  13.7500  71.5000 Du        
   1667 ****       -12.7500  13.7500  71.7500 Du        
   1668 ****       -12.7500  13.7500  72.0000 Du        
   1669 ****       -12.7500  14.0000  63.7500 Du        
   1670 ****       -12.7500  14.0000  64.0000 Du        
   1671 ****       -12.7500  14.0000  64.2500 Du        
   1672 ****       -12.7500  14.0000  64.5000 Du        
   1673 ****       -12.7500  14.0000  64.7500 Du        
   1674 ****       -12.7500  14.0000  65.0000 Du        
   1675 ****       -12.7500  14.0000  65.2500 Du        
   1676 ****       -12.7500  14.0000  70.5000 Du        
   1677 ****       -12.7500  14.0000  70.7500 Du        
   1678 ****       -12.7500  14.0000  71.0000 Du        
   1679 ****       -12.7500  14.0000  71.2500 Du        
   1680 ****       -12.7500  14.0000  71.5000 Du        
   1681 ****       -12.7500  14.0000  71.7500 Du        
   1682 ****       -12.7500  14.0000  72.0000 Du        
   1683 ****       -12.7500  14.0000  72.2500 Du        
   1684 ****       -12.7500  14.0000  72.5000 Du        
   1685 ****       -12.7500  14.2500  63.7500 Du        
   1686 ****       -12.7500  14.2500  64.0000 Du        
   1687 ****       -12.7500  14.2500  64.2500 Du        
   1688 ****       -12.7500  14.2500  64.5000 Du        
   1689 ****       -12.7500  14.2500  64.7500 Du        
   1690 ****       -12.7500  14.2500  65.0000 Du        
   1691 ****       -12.7500  14.2500  70.2500 Du        
   1692 ****       -12.7500  14.2500  70.5000 Du        
   1693 ****       -12.7500  14.2500  70.7500 Du        
   1694 ****       -12.7500  14.2500  71.0000 Du        
   1695 ****       -12.7500  14.2500  71.2500 Du        
   1696 ****       -12.7500  14.2500  71.5000 Du        
   1697 ****       -12.7500  14.2500  71.7500 Du        
   1698 ****       -12.7500  14.2500  72.0000 Du        
   1699 ****       -12.7500  14.2500  72.2500 Du        
   1700 ****       -12.7500  14.2500  72.5000 Du        
   1701 ****       -12.7500  14.2500  72.7500 Du        
   1702 ****       -12.7500  14.2500  73.0000 Du        
   1703 ****       -12.7500  14.5000  64.0000 Du        
   1704 ****       -12.7500  14.5000  64.2500 Du        
   1705 ****       -12.7500  14.5000  70.0000 Du        
   1706 ****       -12.7500  14.5000  70.2500 Du        
   1707 ****       -12.7500  14.5000  70.5000 Du        
   1708 ****       -12.7500  14.5000  70.7500 Du        
   1709 ****       -12.7500  14.5000  71.0000 Du        
   1710 ****       -12.7500  14.5000  71.2500 Du        
   1711 ****       -12.7500  14.5000  71.5000 Du        
   1712 ****       -12.7500  14.5000  71.7500 Du        
   1713 ****       -12.7500  14.5000  72.0000 Du        
   1714 ****       -12.7500  14.5000  72.2500 Du        
   1715 ****       -12.7500  14.5000  72.5000 Du        
   1716 ****       -12.7500  14.5000  72.7500 Du        
   1717 ****       -12.7500  14.5000  73.0000 Du        
   1718 ****       -12.7500  14.5000  73.2500 Du        
   1719 ****       -12.7500  14.5000  73.5000 Du        
   1720 ****       -12.7500  14.7500  70.0000 Du        
   1721 ****       -12.7500  14.7500  70.2500 Du        
   1722 ****       -12.7500  14.7500  70.5000 Du        
   1723 ****       -12.7500  14.7500  70.7500 Du        
   1724 ****       -12.7500  14.7500  71.0000 Du        
   1725 ****       -12.7500  14.7500  71.2500 Du        
   1726 ****       -12.7500  14.7500  71.5000 Du        
   1727 ****       -12.7500  14.7500  71.7500 Du        
   1728 ****       -12.7500  14.7500  72.0000 Du        
   1729 ****       -12.7500  14.7500  72.2500 Du        
   1730 ****       -12.7500  14.7500  72.5000 Du        
   1731 ****       -12.7500  14.7500  72.7500 Du        
   1732 ****       -12.7500  14.7500  73.0000 Du        
   1733 ****       -12.7500  14.7500  73.2500 Du        
   1734 ****       -12.7500  14.7500  73.5000 Du        
   1735 ****       -12.7500  14.7500  73.7500 Du        
   1736 ****       -12.7500  15.0000  69.7500 Du        
   1737 ****       -12.7500  15.0000  70.0000 Du        
   1738 ****       -12.7500  15.0000  70.2500 Du        
   1739 ****       -12.7500  15.0000  70.5000 Du        
   1740 ****       -12.7500  15.0000  70.7500 Du        
   1741 ****       -12.7500  15.0000  71.0000 Du        
   1742 ****       -12.7500  15.0000  71.2500 Du        
   1743 ****       -12.7500  15.0000  71.5000 Du        
   1744 ****       -12.7500  15.0000  71.7500 Du        
   1745 ****       -12.7500  15.0000  72.0000 Du        
   1746 ****       -12.7500  15.0000  72.2500 Du        
   1747 ****       -12.7500  15.0000  72.5000 Du        
   1748 ****       -12.7500  15.0000  72.7500 Du        
   1749 ****       -12.7500  15.0000  73.0000 Du        
   1750 ****       -12.7500  15.0000  73.2500 Du        
   1751 ****       -12.7500  15.0000  73.5000 Du        
   1752 ****       -12.7500  15.0000  73.7500 Du        
   1753 ****       -12.7500  15.0000  74.0000 Du        
   1754 ****       -12.7500  15.2500  69.7500 Du        
   1755 ****       -12.7500  15.2500  70.0000 Du        
   1756 ****       -12.7500  15.2500  70.2500 Du        
   1757 ****       -12.7500  15.2500  70.5000 Du        
   1758 ****       -12.7500  15.2500  70.7500 Du        
   1759 ****       -12.7500  15.2500  71.0000 Du        
   1760 ****       -12.7500  15.2500  71.2500 Du        
   1761 ****       -12.7500  15.2500  71.5000 Du        
   1762 ****       -12.7500  15.2500  71.7500 Du        
   1763 ****       -12.7500  15.2500  72.0000 Du        
   1764 ****       -12.7500  15.2500  72.2500 Du        
   1765 ****       -12.7500  15.2500  72.5000 Du        
   1766 ****       -12.7500  15.2500  72.7500 Du        
   1767 ****       -12.7500  15.2500  73.0000 Du        
   1768 ****       -12.7500  15.2500  73.2500 Du        
   1769 ****       -12.7500  15.2500  73.5000 Du        
   1770 ****       -12.7500  15.2500  73.7500 Du        
   1771 ****       -12.7500  15.2500  74.0000 Du        
   1772 ****       -12.7500  15.5000  69.7500 Du        
   1773 ****       -12.7500  15.5000  70.0000 Du        
   1774 ****       -12.7500  15.5000  70.2500 Du        
   1775 ****       -12.7500  15.5000  70.5000 Du        
   1776 ****       -12.7500  15.5000  70.7500 Du        
   1777 ****       -12.7500  15.5000  71.0000 Du        
   1778 ****       -12.7500  15.5000  71.2500 Du        
   1779 ****       -12.7500  15.5000  71.5000 Du        
   1780 ****       -12.7500  15.5000  71.7500 Du        
   1781 ****       -12.7500  15.5000  72.0000 Du        
   1782 ****       -12.7500  15.5000  72.2500 Du        
   1783 ****       -12.7500  15.5000  72.5000 Du        
   1784 ****       -12.7500  15.5000  72.7500 Du        
   1785 ****       -12.7500  15.5000  73.0000 Du        
   1786 ****       -12.7500  15.5000  73.2500 Du        
   1787 ****       -12.7500  15.5000  73.5000 Du        
   1788 ****       -12.7500  15.5000  73.7500 Du        
   1789 ****       -12.7500  15.5000  74.0000 Du        
   1790 ****       -12.7500  15.5000  74.2500 Du        
   1791 ****       -12.7500  15.7500  69.7500 Du        
   1792 ****       -12.7500  15.7500  70.0000 Du        
   1793 ****       -12.7500  15.7500  70.2500 Du        
   1794 ****       -12.7500  15.7500  70.5000 Du        
   1795 ****       -12.7500  15.7500  70.7500 Du        
   1796 ****       -12.7500  15.7500  71.0000 Du        
   1797 ****       -12.7500  15.7500  71.2500 Du        
   1798 ****       -12.7500  15.7500  71.5000 Du        
   1799 ****       -12.7500  15.7500  71.7500 Du        
   1800 ****       -12.7500  15.7500  72.0000 Du        
   1801 ****       -12.7500  15.7500  72.2500 Du        
   1802 ****       -12.7500  15.7500  72.5000 Du        
   1803 ****       -12.7500  15.7500  72.7500 Du        
   1804 ****       -12.7500  15.7500  73.0000 Du        
   1805 ****       -12.7500  15.7500  73.2500 Du        
   1806 ****       -12.7500  15.7500  73.5000 Du        
   1807 ****       -12.7500  15.7500  73.7500 Du        
   1808 ****       -12.7500  15.7500  74.0000 Du        
   1809 ****       -12.7500  15.7500  74.2500 Du        
   1810 ****       -12.7500  15.7500  74.5000 Du        
   1811 ****       -12.7500  16.0000  70.2500 Du        
   1812 ****       -12.7500  16.0000  70.5000 Du        
   1813 ****       -12.7500  16.0000  70.7500 Du        
   1814 ****       -12.7500  16.0000  71.0000 Du        
   1815 ****       -12.7500  16.0000  71.2500 Du        
   1816 ****       -12.7500  16.0000  71.5000 Du        
   1817 ****       -12.7500  16.0000  71.7500 Du        
   1818 ****       -12.7500  16.0000  72.0000 Du        
   1819 ****       -12.7500  16.0000  72.2500 Du        
   1820 ****       -12.7500  16.0000  72.5000 Du        
   1821 ****       -12.7500  16.0000  72.7500 Du        
   1822 ****       -12.7500  16.0000  73.0000 Du        
   1823 ****       -12.7500  16.0000  73.2500 Du        
   1824 ****       -12.7500  16.0000  73.5000 Du        
   1825 ****       -12.7500  16.0000  73.7500 Du        
   1826 ****       -12.7500  16.0000  74.0000 Du        
   1827 ****       -12.7500  16.0000  74.2500 Du        
   1828 ****       -12.7500  16.0000  74.5000 Du        
   1829 ****       -12.7500  16.2500  71.2500 Du        
   1830 ****       -12.7500  16.2500  71.5000 Du        
   1831 ****       -12.7500  16.2500  71.7500 Du        
   1832 ****       -12.7500  16.2500  72.0000 Du        
   1833 ****       -12.7500  16.2500  72.2500 Du        
   1834 ****       -12.7500  16.2500  72.5000 Du        
   1835 ****       -12.7500  16.2500  72.7500 Du        
   1836 ****       -12.7500  16.2500  73.0000 Du        
   1837 ****       -12.7500  16.2500  73.2500 Du        
   1838 ****       -12.7500  16.2500  73.5000 Du        
   1839 ****       -12.7500  16.2500  73.7500 Du        
   1840 ****       -12.7500  16.2500  74.0000 Du        
   1841 ****       -12.7500  16.2500  74.2500 Du        
   1842 ****       -12.7500  16.5000  72.5000 Du        
   1843 ****       -12.7500  16.5000  72.7500 Du        
   1844 ****       -12.7500  16.5000  73.0000 Du        
   1845 ****       -12.7500  16.5000  73.2500 Du        
   1846 ****       -12.7500  16.5000  73.5000 Du        
   1847 ****       -12.7500  16.5000  73.7500 Du        
   1848 ****       -12.7500  16.5000  74.0000 Du        
   1849 ****       -12.5000   6.5000  72.0000 Du        
   1850 ****       -12.5000   6.5000  72.2500 Du        
   1851 ****       -12.5000   6.7500  71.5000 Du        
   1852 ****       -12.5000   6.7500  71.7500 Du        
   1853 ****       -12.5000   6.7500  72.0000 Du        
   1854 ****       -12.5000   6.7500  72.2500 Du        
   1855 ****       -12.5000   6.7500  72.5000 Du        
   1856 ****       -12.5000   7.0000  71.0000 Du        
   1857 ****       -12.5000   7.0000  71.2500 Du        
   1858 ****       -12.5000   7.0000  71.5000 Du        
   1859 ****       -12.5000   7.0000  71.7500 Du        
   1860 ****       -12.5000   7.0000  72.0000 Du        
   1861 ****       -12.5000   7.0000  72.2500 Du        
   1862 ****       -12.5000   7.0000  72.5000 Du        
   1863 ****       -12.5000   7.2500  70.7500 Du        
   1864 ****       -12.5000   7.2500  71.0000 Du        
   1865 ****       -12.5000   7.2500  71.2500 Du        
   1866 ****       -12.5000   7.2500  71.5000 Du        
   1867 ****       -12.5000   7.2500  71.7500 Du        
   1868 ****       -12.5000   7.2500  72.0000 Du        
   1869 ****       -12.5000   7.2500  72.2500 Du        
   1870 ****       -12.5000   7.2500  72.5000 Du        
   1871 ****       -12.5000   7.5000  70.7500 Du        
   1872 ****       -12.5000   7.5000  71.0000 Du        
   1873 ****       -12.5000   7.5000  71.2500 Du        
   1874 ****       -12.5000   7.5000  71.5000 Du        
   1875 ****       -12.5000   7.5000  71.7500 Du        
   1876 ****       -12.5000   7.5000  72.0000 Du        
   1877 ****       -12.5000   7.5000  72.2500 Du        
   1878 ****       -12.5000   7.5000  72.5000 Du        
   1879 ****       -12.5000   7.7500  70.7500 Du        
   1880 ****       -12.5000   7.7500  71.0000 Du        
   1881 ****       -12.5000   7.7500  71.2500 Du        
   1882 ****       -12.5000   7.7500  71.5000 Du        
   1883 ****       -12.5000   7.7500  71.7500 Du        
   1884 ****       -12.5000   7.7500  72.0000 Du        
   1885 ****       -12.5000   7.7500  72.2500 Du        
   1886 ****       -12.5000   7.7500  72.5000 Du        
   1887 ****       -12.5000   8.0000  70.7500 Du        
   1888 ****       -12.5000   8.0000  71.0000 Du        
   1889 ****       -12.5000   8.0000  71.2500 Du        
   1890 ****       -12.5000   8.0000  71.5000 Du        
   1891 ****       -12.5000   8.0000  71.7500 Du        
   1892 ****       -12.5000   8.0000  72.0000 Du        
   1893 ****       -12.5000   8.0000  72.2500 Du        
   1894 ****       -12.5000   8.0000  72.5000 Du        
   1895 ****       -12.5000   8.2500  70.7500 Du        
   1896 ****       -12.5000   8.2500  71.0000 Du        
   1897 ****       -12.5000   8.2500  71.2500 Du        
   1898 ****       -12.5000   8.2500  71.5000 Du        
   1899 ****       -12.5000   8.2500  71.7500 Du        
   1900 ****       -12.5000   8.2500  72.0000 Du        
   1901 ****       -12.5000   8.2500  72.2500 Du        
   1902 ****       -12.5000   8.2500  72.5000 Du        
   1903 ****       -12.5000   8.5000  70.7500 Du        
   1904 ****       -12.5000   8.5000  71.0000 Du        
   1905 ****       -12.5000   8.5000  71.2500 Du        
   1906 ****       -12.5000   8.5000  71.5000 Du        
   1907 ****       -12.5000   8.5000  71.7500 Du        
   1908 ****       -12.5000   8.5000  72.0000 Du        
   1909 ****       -12.5000   8.5000  72.2500 Du        
   1910 ****       -12.5000   8.7500  70.7500 Du        
   1911 ****       -12.5000   8.7500  71.0000 Du        
   1912 ****       -12.5000   8.7500  71.2500 Du        
   1913 ****       -12.5000   8.7500  71.5000 Du        
   1914 ****       -12.5000   8.7500  71.7500 Du        
   1915 ****       -12.5000   8.7500  72.0000 Du        
   1916 ****       -12.5000   9.0000  70.5000 Du        
   1917 ****       -12.5000   9.0000  70.7500 Du        
   1918 ****       -12.5000   9.0000  71.0000 Du        
   1919 ****       -12.5000   9.0000  71.2500 Du        
   1920 ****       -12.5000   9.0000  71.5000 Du        
   1921 ****       -12.5000   9.0000  71.7500 Du        
   1922 ****       -12.5000   9.2500  70.5000 Du        
   1923 ****       -12.5000   9.2500  70.7500 Du        
   1924 ****       -12.5000   9.2500  71.0000 Du        
   1925 ****       -12.5000   9.2500  71.2500 Du        
   1926 ****       -12.5000   9.2500  71.5000 Du        
   1927 ****       -12.5000   9.2500  71.7500 Du        
   1928 ****       -12.5000   9.5000  70.5000 Du        
   1929 ****       -12.5000   9.5000  70.7500 Du        
   1930 ****       -12.5000   9.5000  71.0000 Du        
   1931 ****       -12.5000   9.5000  71.2500 Du        
   1932 ****       -12.5000   9.5000  71.5000 Du        
   1933 ****       -12.5000   9.7500  70.5000 Du        
   1934 ****       -12.5000   9.7500  70.7500 Du        
   1935 ****       -12.5000   9.7500  71.0000 Du        
   1936 ****       -12.5000   9.7500  71.2500 Du        
   1937 ****       -12.5000   9.7500  71.5000 Du        
   1938 ****       -12.5000  10.0000  70.5000 Du        
   1939 ****       -12.5000  10.0000  70.7500 Du        
   1940 ****       -12.5000  10.0000  71.0000 Du        
   1941 ****       -12.5000  10.0000  71.2500 Du        
   1942 ****       -12.5000  10.2500  70.5000 Du        
   1943 ****       -12.5000  10.2500  70.7500 Du        
   1944 ****       -12.5000  10.2500  71.0000 Du        
   1945 ****       -12.5000  10.2500  71.2500 Du        
   1946 ****       -12.5000  10.5000  70.7500 Du        
   1947 ****       -12.5000  12.0000  63.0000 Du        
   1948 ****       -12.5000  12.0000  63.2500 Du        
   1949 ****       -12.5000  12.0000  63.5000 Du        
   1950 ****       -12.5000  12.0000  63.7500 Du        
   1951 ****       -12.5000  12.2500  63.0000 Du        
   1952 ****       -12.5000  12.2500  63.2500 Du        
   1953 ****       -12.5000  12.2500  63.5000 Du        
   1954 ****       -12.5000  12.2500  63.7500 Du        
   1955 ****       -12.5000  12.2500  64.0000 Du        
   1956 ****       -12.5000  12.2500  64.2500 Du        
   1957 ****       -12.5000  12.2500  64.5000 Du        
   1958 ****       -12.5000  12.2500  64.7500 Du        
   1959 ****       -12.5000  12.5000  63.0000 Du        
   1960 ****       -12.5000  12.5000  63.2500 Du        
   1961 ****       -12.5000  12.5000  63.5000 Du        
   1962 ****       -12.5000  12.5000  63.7500 Du        
   1963 ****       -12.5000  12.5000  64.0000 Du        
   1964 ****       -12.5000  12.5000  64.2500 Du        
   1965 ****       -12.5000  12.5000  64.5000 Du        
   1966 ****       -12.5000  12.5000  64.7500 Du        
   1967 ****       -12.5000  12.5000  65.0000 Du        
   1968 ****       -12.5000  12.5000  65.2500 Du        
   1969 ****       -12.5000  12.7500  63.0000 Du        
   1970 ****       -12.5000  12.7500  63.2500 Du        
   1971 ****       -12.5000  12.7500  63.5000 Du        
   1972 ****       -12.5000  12.7500  63.7500 Du        
   1973 ****       -12.5000  12.7500  64.0000 Du        
   1974 ****       -12.5000  12.7500  64.2500 Du        
   1975 ****       -12.5000  12.7500  64.5000 Du        
   1976 ****       -12.5000  12.7500  64.7500 Du        
   1977 ****       -12.5000  12.7500  65.0000 Du        
   1978 ****       -12.5000  12.7500  65.2500 Du        
   1979 ****       -12.5000  13.0000  63.2500 Du        
   1980 ****       -12.5000  13.0000  63.5000 Du        
   1981 ****       -12.5000  13.0000  63.7500 Du        
   1982 ****       -12.5000  13.0000  64.0000 Du        
   1983 ****       -12.5000  13.0000  64.2500 Du        
   1984 ****       -12.5000  13.0000  64.5000 Du        
   1985 ****       -12.5000  13.0000  64.7500 Du        
   1986 ****       -12.5000  13.0000  65.0000 Du        
   1987 ****       -12.5000  13.0000  65.2500 Du        
   1988 ****       -12.5000  13.0000  65.5000 Du        
   1989 ****       -12.5000  13.2500  63.2500 Du        
   1990 ****       -12.5000  13.2500  63.5000 Du        
   1991 ****       -12.5000  13.2500  63.7500 Du        
   1992 ****       -12.5000  13.2500  64.0000 Du        
   1993 ****       -12.5000  13.2500  64.2500 Du        
   1994 ****       -12.5000  13.2500  64.5000 Du        
   1995 ****       -12.5000  13.2500  64.7500 Du        
   1996 ****       -12.5000  13.2500  65.0000 Du        
   1997 ****       -12.5000  13.2500  65.2500 Du        
   1998 ****       -12.5000  13.2500  65.5000 Du        
   1999 ****       -12.5000  13.5000  63.2500 Du        
   2000 ****       -12.5000  13.5000  63.5000 Du        
   2001 ****       -12.5000  13.5000  63.7500 Du        
   2002 ****       -12.5000  13.5000  64.0000 Du        
   2003 ****       -12.5000  13.5000  64.2500 Du        
   2004 ****       -12.5000  13.5000  64.5000 Du        
   2005 ****       -12.5000  13.5000  64.7500 Du        
   2006 ****       -12.5000  13.5000  65.0000 Du        
   2007 ****       -12.5000  13.5000  65.2500 Du        
   2008 ****       -12.5000  13.5000  65.5000 Du        
   2009 ****       -12.5000  13.5000  70.5000 Du        
   2010 ****       -12.5000  13.5000  70.7500 Du        
   2011 ****       -12.5000  13.5000  71.0000 Du        
   2012 ****       -12.5000  13.5000  71.2500 Du        
   2013 ****       -12.5000  13.7500  63.2500 Du        
   2014 ****       -12.5000  13.7500  63.5000 Du        
   2015 ****       -12.5000  13.7500  63.7500 Du        
   2016 ****       -12.5000  13.7500  64.0000 Du        
   2017 ****       -12.5000  13.7500  64.2500 Du        
   2018 ****       -12.5000  13.7500  64.5000 Du        
   2019 ****       -12.5000  13.7500  64.7500 Du        
   2020 ****       -12.5000  13.7500  65.0000 Du        
   2021 ****       -12.5000  13.7500  65.2500 Du        
   2022 ****       -12.5000  13.7500  65.5000 Du        
   2023 ****       -12.5000  13.7500  70.5000 Du        
   2024 ****       -12.5000  13.7500  70.7500 Du        
   2025 ****       -12.5000  13.7500  71.0000 Du        
   2026 ****       -12.5000  13.7500  71.2500 Du        
   2027 ****       -12.5000  13.7500  71.5000 Du        
   2028 ****       -12.5000  14.0000  63.5000 Du        
   2029 ****       -12.5000  14.0000  63.7500 Du        
   2030 ****       -12.5000  14.0000  64.0000 Du        
   2031 ****       -12.5000  14.0000  64.2500 Du        
   2032 ****       -12.5000  14.0000  64.5000 Du        
   2033 ****       -12.5000  14.0000  64.7500 Du        
   2034 ****       -12.5000  14.0000  65.0000 Du        
   2035 ****       -12.5000  14.0000  65.2500 Du        
   2036 ****       -12.5000  14.0000  70.2500 Du        
   2037 ****       -12.5000  14.0000  70.5000 Du        
   2038 ****       -12.5000  14.0000  70.7500 Du        
   2039 ****       -12.5000  14.0000  71.0000 Du        
   2040 ****       -12.5000  14.0000  71.2500 Du        
   2041 ****       -12.5000  14.0000  71.5000 Du        
   2042 ****       -12.5000  14.0000  71.7500 Du        
   2043 ****       -12.5000  14.0000  72.0000 Du        
   2044 ****       -12.5000  14.2500  63.5000 Du        
   2045 ****       -12.5000  14.2500  63.7500 Du        
   2046 ****       -12.5000  14.2500  64.0000 Du        
   2047 ****       -12.5000  14.2500  64.2500 Du        
   2048 ****       -12.5000  14.2500  64.5000 Du        
   2049 ****       -12.5000  14.2500  64.7500 Du        
   2050 ****       -12.5000  14.2500  65.0000 Du        
   2051 ****       -12.5000  14.2500  70.0000 Du        
   2052 ****       -12.5000  14.2500  70.2500 Du        
   2053 ****       -12.5000  14.2500  70.5000 Du        
   2054 ****       -12.5000  14.2500  70.7500 Du        
   2055 ****       -12.5000  14.2500  71.0000 Du        
   2056 ****       -12.5000  14.2500  71.2500 Du        
   2057 ****       -12.5000  14.2500  71.5000 Du        
   2058 ****       -12.5000  14.2500  71.7500 Du        
   2059 ****       -12.5000  14.2500  72.0000 Du        
   2060 ****       -12.5000  14.2500  72.2500 Du        
   2061 ****       -12.5000  14.2500  72.5000 Du        
   2062 ****       -12.5000  14.5000  63.7500 Du        
   2063 ****       -12.5000  14.5000  64.0000 Du        
   2064 ****       -12.5000  14.5000  64.2500 Du        
   2065 ****       -12.5000  14.5000  64.5000 Du        
   2066 ****       -12.5000  14.5000  69.7500 Du        
   2067 ****       -12.5000  14.5000  70.0000 Du        
   2068 ****       -12.5000  14.5000  70.2500 Du        
   2069 ****       -12.5000  14.5000  70.5000 Du        
   2070 ****       -12.5000  14.5000  70.7500 Du        
   2071 ****       -12.5000  14.5000  71.0000 Du        
   2072 ****       -12.5000  14.5000  71.2500 Du        
   2073 ****       -12.5000  14.5000  71.5000 Du        
   2074 ****       -12.5000  14.5000  71.7500 Du        
   2075 ****       -12.5000  14.5000  72.0000 Du        
   2076 ****       -12.5000  14.5000  72.2500 Du        
   2077 ****       -12.5000  14.5000  72.5000 Du        
   2078 ****       -12.5000  14.5000  72.7500 Du        
   2079 ****       -12.5000  14.5000  73.0000 Du        
   2080 ****       -12.5000  14.5000  73.2500 Du        
   2081 ****       -12.5000  14.7500  69.5000 Du        
   2082 ****       -12.5000  14.7500  69.7500 Du        
   2083 ****       -12.5000  14.7500  70.0000 Du        
   2084 ****       -12.5000  14.7500  70.2500 Du        
   2085 ****       -12.5000  14.7500  70.5000 Du        
   2086 ****       -12.5000  14.7500  70.7500 Du        
   2087 ****       -12.5000  14.7500  71.0000 Du        
   2088 ****       -12.5000  14.7500  71.2500 Du        
   2089 ****       -12.5000  14.7500  71.5000 Du        
   2090 ****       -12.5000  14.7500  71.7500 Du        
   2091 ****       -12.5000  14.7500  72.0000 Du        
   2092 ****       -12.5000  14.7500  72.2500 Du        
   2093 ****       -12.5000  14.7500  72.5000 Du        
   2094 ****       -12.5000  14.7500  72.7500 Du        
   2095 ****       -12.5000  14.7500  73.0000 Du        
   2096 ****       -12.5000  14.7500  73.2500 Du        
   2097 ****       -12.5000  14.7500  73.5000 Du        
   2098 ****       -12.5000  15.0000  69.2500 Du        
   2099 ****       -12.5000  15.0000  69.5000 Du        
   2100 ****       -12.5000  15.0000  69.7500 Du        
   2101 ****       -12.5000  15.0000  70.0000 Du        
   2102 ****       -12.5000  15.0000  70.2500 Du        
   2103 ****       -12.5000  15.0000  70.5000 Du        
   2104 ****       -12.5000  15.0000  70.7500 Du        
   2105 ****       -12.5000  15.0000  71.0000 Du        
   2106 ****       -12.5000  15.0000  71.2500 Du        
   2107 ****       -12.5000  15.0000  71.5000 Du        
   2108 ****       -12.5000  15.0000  71.7500 Du        
   2109 ****       -12.5000  15.0000  72.0000 Du        
   2110 ****       -12.5000  15.0000  72.2500 Du        
   2111 ****       -12.5000  15.0000  72.5000 Du        
   2112 ****       -12.5000  15.0000  72.7500 Du        
   2113 ****       -12.5000  15.0000  73.0000 Du        
   2114 ****       -12.5000  15.0000  73.2500 Du        
   2115 ****       -12.5000  15.0000  73.5000 Du        
   2116 ****       -12.5000  15.0000  73.7500 Du        
   2117 ****       -12.5000  15.0000  74.0000 Du        
   2118 ****       -12.5000  15.2500  69.2500 Du        
   2119 ****       -12.5000  15.2500  69.5000 Du        
   2120 ****       -12.5000  15.2500  69.7500 Du        
   2121 ****       -12.5000  15.2500  70.0000 Du        
   2122 ****       -12.5000  15.2500  70.2500 Du        
   2123 ****       -12.5000  15.2500  70.5000 Du        
   2124 ****       -12.5000  15.2500  70.7500 Du        
   2125 ****       -12.5000  15.2500  71.0000 Du        
   2126 ****       -12.5000  15.2500  71.2500 Du        
   2127 ****       -12.5000  15.2500  71.5000 Du        
   2128 ****       -12.5000  15.2500  71.7500 Du        
   2129 ****       -12.5000  15.2500  72.0000 Du        
   2130 ****       -12.5000  15.2500  72.2500 Du        
   2131 ****       -12.5000  15.2500  72.5000 Du        
   2132 ****       -12.5000  15.2500  72.7500 Du        
   2133 ****       -12.5000  15.2500  73.0000 Du        
   2134 ****       -12.5000  15.2500  73.2500 Du        
   2135 ****       -12.5000  15.2500  73.5000 Du        
   2136 ****       -12.5000  15.2500  73.7500 Du        
   2137 ****       -12.5000  15.2500  74.0000 Du        
   2138 ****       -12.5000  15.2500  74.2500 Du        
   2139 ****       -12.5000  15.5000  69.5000 Du        
   2140 ****       -12.5000  15.5000  69.7500 Du        
   2141 ****       -12.5000  15.5000  70.0000 Du        
   2142 ****       -12.5000  15.5000  70.2500 Du        
   2143 ****       -12.5000  15.5000  70.5000 Du        
   2144 ****       -12.5000  15.5000  70.7500 Du        
   2145 ****       -12.5000  15.5000  71.0000 Du        
   2146 ****       -12.5000  15.5000  71.2500 Du        
   2147 ****       -12.5000  15.5000  71.5000 Du        
   2148 ****       -12.5000  15.5000  71.7500 Du        
   2149 ****       -12.5000  15.5000  72.0000 Du        
   2150 ****       -12.5000  15.5000  72.2500 Du        
   2151 ****       -12.5000  15.5000  72.5000 Du        
   2152 ****       -12.5000  15.5000  72.7500 Du        
   2153 ****       -12.5000  15.5000  73.0000 Du        
   2154 ****       -12.5000  15.5000  73.2500 Du        
   2155 ****       -12.5000  15.5000  73.5000 Du        
   2156 ****       -12.5000  15.5000  73.7500 Du        
   2157 ****       -12.5000  15.5000  74.0000 Du        
   2158 ****       -12.5000  15.5000  74.2500 Du        
   2159 ****       -12.5000  15.5000  74.5000 Du        
   2160 ****       -12.5000  15.7500  69.5000 Du        
   2161 ****       -12.5000  15.7500  69.7500 Du        
   2162 ****       -12.5000  15.7500  70.0000 Du        
   2163 ****       -12.5000  15.7500  70.2500 Du        
   2164 ****       -12.5000  15.7500  70.5000 Du        
   2165 ****       -12.5000  15.7500  70.7500 Du        
   2166 ****       -12.5000  15.7500  71.0000 Du        
   2167 ****       -12.5000  15.7500  71.2500 Du        
   2168 ****       -12.5000  15.7500  71.5000 Du        
   2169 ****       -12.5000  15.7500  71.7500 Du        
   2170 ****       -12.5000  15.7500  72.0000 Du        
   2171 ****       -12.5000  15.7500  72.2500 Du        
   2172 ****       -12.5000  15.7500  72.5000 Du        
   2173 ****       -12.5000  15.7500  72.7500 Du        
   2174 ****       -12.5000  15.7500  73.0000 Du        
   2175 ****       -12.5000  15.7500  73.2500 Du        
   2176 ****       -12.5000  15.7500  73.5000 Du        
   2177 ****       -12.5000  15.7500  73.7500 Du        
   2178 ****       -12.5000  15.7500  74.0000 Du        
   2179 ****       -12.5000  15.7500  74.2500 Du        
   2180 ****       -12.5000  15.7500  74.5000 Du        
   2181 ****       -12.5000  15.7500  74.7500 Du        
   2182 ****       -12.5000  16.0000  70.2500 Du        
   2183 ****       -12.5000  16.0000  70.5000 Du        
   2184 ****       -12.5000  16.0000  70.7500 Du        
   2185 ****       -12.5000  16.0000  71.0000 Du        
   2186 ****       -12.5000  16.0000  71.2500 Du        
   2187 ****       -12.5000  16.0000  71.5000 Du        
   2188 ****       -12.5000  16.0000  71.7500 Du        
   2189 ****       -12.5000  16.0000  72.0000 Du        
   2190 ****       -12.5000  16.0000  72.2500 Du        
   2191 ****       -12.5000  16.0000  72.5000 Du        
   2192 ****       -12.5000  16.0000  72.7500 Du        
   2193 ****       -12.5000  16.0000  73.0000 Du        
   2194 ****       -12.5000  16.0000  73.2500 Du        
   2195 ****       -12.5000  16.0000  73.5000 Du        
   2196 ****       -12.5000  16.0000  73.7500 Du        
   2197 ****       -12.5000  16.0000  74.0000 Du        
   2198 ****       -12.5000  16.0000  74.2500 Du        
   2199 ****       -12.5000  16.0000  74.5000 Du        
   2200 ****       -12.5000  16.0000  74.7500 Du        
   2201 ****       -12.5000  16.2500  71.2500 Du        
   2202 ****       -12.5000  16.2500  71.5000 Du        
   2203 ****       -12.5000  16.2500  71.7500 Du        
   2204 ****       -12.5000  16.2500  72.0000 Du        
   2205 ****       -12.5000  16.2500  72.2500 Du        
   2206 ****       -12.5000  16.2500  72.5000 Du        
   2207 ****       -12.5000  16.2500  72.7500 Du        
   2208 ****       -12.5000  16.2500  73.0000 Du        
   2209 ****       -12.5000  16.2500  73.2500 Du        
   2210 ****       -12.5000  16.2500  73.5000 Du        
   2211 ****       -12.5000  16.2500  73.7500 Du        
   2212 ****       -12.5000  16.2500  74.0000 Du        
   2213 ****       -12.5000  16.2500  74.2500 Du        
   2214 ****       -12.5000  16.2500  74.5000 Du        
   2215 ****       -12.5000  16.5000  72.2500 Du        
   2216 ****       -12.5000  16.5000  72.5000 Du        
   2217 ****       -12.5000  16.5000  72.7500 Du        
   2218 ****       -12.5000  16.5000  73.0000 Du        
   2219 ****       -12.5000  16.5000  73.2500 Du        
   2220 ****       -12.5000  16.5000  73.5000 Du        
   2221 ****       -12.5000  16.5000  73.7500 Du        
   2222 ****       -12.5000  16.5000  74.0000 Du        
   2223 ****       -12.2500   6.2500  72.2500 Du        
   2224 ****       -12.2500   6.2500  72.5000 Du        
   2225 ****       -12.2500   6.5000  71.7500 Du        
   2226 ****       -12.2500   6.5000  72.0000 Du        
   2227 ****       -12.2500   6.5000  72.2500 Du        
   2228 ****       -12.2500   6.5000  72.5000 Du        
   2229 ****       -12.2500   6.7500  71.2500 Du        
   2230 ****       -12.2500   6.7500  71.5000 Du        
   2231 ****       -12.2500   6.7500  71.7500 Du        
   2232 ****       -12.2500   6.7500  72.0000 Du        
   2233 ****       -12.2500   6.7500  72.2500 Du        
   2234 ****       -12.2500   6.7500  72.5000 Du        
   2235 ****       -12.2500   7.0000  70.7500 Du        
   2236 ****       -12.2500   7.0000  71.0000 Du        
   2237 ****       -12.2500   7.0000  71.2500 Du        
   2238 ****       -12.2500   7.0000  71.5000 Du        
   2239 ****       -12.2500   7.0000  71.7500 Du        
   2240 ****       -12.2500   7.0000  72.0000 Du        
   2241 ****       -12.2500   7.0000  72.2500 Du        
   2242 ****       -12.2500   7.0000  72.5000 Du        
   2243 ****       -12.2500   7.2500  70.5000 Du        
   2244 ****       -12.2500   7.2500  70.7500 Du        
   2245 ****       -12.2500   7.2500  71.0000 Du        
   2246 ****       -12.2500   7.2500  71.2500 Du        
   2247 ****       -12.2500   7.2500  71.5000 Du        
   2248 ****       -12.2500   7.2500  71.7500 Du        
   2249 ****       -12.2500   7.2500  72.0000 Du        
   2250 ****       -12.2500   7.2500  72.2500 Du        
   2251 ****       -12.2500   7.2500  72.5000 Du        
   2252 ****       -12.2500   7.2500  72.7500 Du        
   2253 ****       -12.2500   7.5000  70.5000 Du        
   2254 ****       -12.2500   7.5000  70.7500 Du        
   2255 ****       -12.2500   7.5000  71.0000 Du        
   2256 ****       -12.2500   7.5000  71.2500 Du        
   2257 ****       -12.2500   7.5000  71.5000 Du        
   2258 ****       -12.2500   7.5000  71.7500 Du        
   2259 ****       -12.2500   7.5000  72.0000 Du        
   2260 ****       -12.2500   7.5000  72.2500 Du        
   2261 ****       -12.2500   7.5000  72.5000 Du        
   2262 ****       -12.2500   7.5000  72.7500 Du        
   2263 ****       -12.2500   7.7500  70.5000 Du        
   2264 ****       -12.2500   7.7500  70.7500 Du        
   2265 ****       -12.2500   7.7500  71.0000 Du        
   2266 ****       -12.2500   7.7500  71.2500 Du        
   2267 ****       -12.2500   7.7500  71.5000 Du        
   2268 ****       -12.2500   7.7500  71.7500 Du        
   2269 ****       -12.2500   7.7500  72.0000 Du        
   2270 ****       -12.2500   7.7500  72.2500 Du        
   2271 ****       -12.2500   7.7500  72.5000 Du        
   2272 ****       -12.2500   7.7500  72.7500 Du        
   2273 ****       -12.2500   8.0000  70.5000 Du        
   2274 ****       -12.2500   8.0000  70.7500 Du        
   2275 ****       -12.2500   8.0000  71.0000 Du        
   2276 ****       -12.2500   8.0000  71.2500 Du        
   2277 ****       -12.2500   8.0000  71.5000 Du        
   2278 ****       -12.2500   8.0000  71.7500 Du        
   2279 ****       -12.2500   8.0000  72.0000 Du        
   2280 ****       -12.2500   8.0000  72.2500 Du        
   2281 ****       -12.2500   8.0000  72.5000 Du        
   2282 ****       -12.2500   8.2500  70.5000 Du        
   2283 ****       -12.2500   8.2500  70.7500 Du        
   2284 ****       -12.2500   8.2500  71.0000 Du        
   2285 ****       -12.2500   8.2500  71.2500 Du        
   2286 ****       -12.2500   8.2500  71.5000 Du        
   2287 ****       -12.2500   8.2500  71.7500 Du        
   2288 ****       -12.2500   8.2500  72.0000 Du        
   2289 ****       -12.2500   8.2500  72.2500 Du        
   2290 ****       -12.2500   8.2500  72.5000 Du        
   2291 ****       -12.2500   8.5000  70.7500 Du        
   2292 ****       -12.2500   8.5000  71.0000 Du        
   2293 ****       -12.2500   8.5000  71.2500 Du        
   2294 ****       -12.2500   8.5000  71.5000 Du        
   2295 ****       -12.2500   8.5000  71.7500 Du        
   2296 ****       -12.2500   8.5000  72.0000 Du        
   2297 ****       -12.2500   8.7500  70.5000 Du        
   2298 ****       -12.2500   8.7500  70.7500 Du        
   2299 ****       -12.2500   8.7500  71.0000 Du        
   2300 ****       -12.2500   8.7500  71.2500 Du        
   2301 ****       -12.2500   8.7500  71.5000 Du        
   2302 ****       -12.2500   8.7500  71.7500 Du        
   2303 ****       -12.2500   8.7500  72.0000 Du        
   2304 ****       -12.2500   9.0000  70.5000 Du        
   2305 ****       -12.2500   9.0000  70.7500 Du        
   2306 ****       -12.2500   9.0000  71.0000 Du        
   2307 ****       -12.2500   9.0000  71.2500 Du        
   2308 ****       -12.2500   9.0000  71.5000 Du        
   2309 ****       -12.2500   9.0000  71.7500 Du        
   2310 ****       -12.2500   9.2500  70.2500 Du        
   2311 ****       -12.2500   9.2500  70.5000 Du        
   2312 ****       -12.2500   9.2500  70.7500 Du        
   2313 ****       -12.2500   9.2500  71.0000 Du        
   2314 ****       -12.2500   9.2500  71.2500 Du        
   2315 ****       -12.2500   9.2500  71.5000 Du        
   2316 ****       -12.2500   9.5000  70.2500 Du        
   2317 ****       -12.2500   9.5000  70.5000 Du        
   2318 ****       -12.2500   9.5000  70.7500 Du        
   2319 ****       -12.2500   9.5000  71.0000 Du        
   2320 ****       -12.2500   9.5000  71.2500 Du        
   2321 ****       -12.2500   9.5000  71.5000 Du        
   2322 ****       -12.2500   9.7500  70.2500 Du        
   2323 ****       -12.2500   9.7500  70.5000 Du        
   2324 ****       -12.2500   9.7500  70.7500 Du        
   2325 ****       -12.2500   9.7500  71.0000 Du        
   2326 ****       -12.2500   9.7500  71.2500 Du        
   2327 ****       -12.2500  10.0000  70.2500 Du        
   2328 ****       -12.2500  10.0000  70.5000 Du        
   2329 ****       -12.2500  10.0000  70.7500 Du        
   2330 ****       -12.2500  10.0000  71.0000 Du        
   2331 ****       -12.2500  10.0000  71.2500 Du        
   2332 ****       -12.2500  10.2500  70.2500 Du        
   2333 ****       -12.2500  10.2500  70.5000 Du        
   2334 ****       -12.2500  10.2500  70.7500 Du        
   2335 ****       -12.2500  10.2500  71.0000 Du        
   2336 ****       -12.2500  10.5000  70.2500 Du        
   2337 ****       -12.2500  10.5000  70.5000 Du        
   2338 ****       -12.2500  10.5000  70.7500 Du        
   2339 ****       -12.2500  11.7500  63.0000 Du        
   2340 ****       -12.2500  11.7500  63.2500 Du        
   2341 ****       -12.2500  11.7500  63.5000 Du        
   2342 ****       -12.2500  12.0000  63.0000 Du        
   2343 ****       -12.2500  12.0000  63.2500 Du        
   2344 ****       -12.2500  12.0000  63.5000 Du        
   2345 ****       -12.2500  12.0000  63.7500 Du        
   2346 ****       -12.2500  12.0000  64.0000 Du        
   2347 ****       -12.2500  12.0000  64.2500 Du        
   2348 ****       -12.2500  12.2500  63.0000 Du        
   2349 ****       -12.2500  12.2500  63.2500 Du        
   2350 ****       -12.2500  12.2500  63.5000 Du        
   2351 ****       -12.2500  12.2500  63.7500 Du        
   2352 ****       -12.2500  12.2500  64.0000 Du        
   2353 ****       -12.2500  12.2500  64.2500 Du        
   2354 ****       -12.2500  12.2500  64.5000 Du        
   2355 ****       -12.2500  12.2500  64.7500 Du        
   2356 ****       -12.2500  12.2500  65.0000 Du        
   2357 ****       -12.2500  12.2500  65.2500 Du        
   2358 ****       -12.2500  12.5000  63.0000 Du        
   2359 ****       -12.2500  12.5000  63.2500 Du        
   2360 ****       -12.2500  12.5000  63.5000 Du        
   2361 ****       -12.2500  12.5000  63.7500 Du        
   2362 ****       -12.2500  12.5000  64.0000 Du        
   2363 ****       -12.2500  12.5000  64.2500 Du        
   2364 ****       -12.2500  12.5000  64.5000 Du        
   2365 ****       -12.2500  12.5000  64.7500 Du        
   2366 ****       -12.2500  12.5000  65.0000 Du        
   2367 ****       -12.2500  12.5000  65.2500 Du        
   2368 ****       -12.2500  12.5000  65.5000 Du        
   2369 ****       -12.2500  12.7500  63.0000 Du        
   2370 ****       -12.2500  12.7500  63.2500 Du        
   2371 ****       -12.2500  12.7500  63.5000 Du        
   2372 ****       -12.2500  12.7500  63.7500 Du        
   2373 ****       -12.2500  12.7500  64.0000 Du        
   2374 ****       -12.2500  12.7500  64.2500 Du        
   2375 ****       -12.2500  12.7500  64.5000 Du        
   2376 ****       -12.2500  12.7500  64.7500 Du        
   2377 ****       -12.2500  12.7500  65.0000 Du        
   2378 ****       -12.2500  12.7500  65.2500 Du        
   2379 ****       -12.2500  12.7500  65.5000 Du        
   2380 ****       -12.2500  13.0000  63.0000 Du        
   2381 ****       -12.2500  13.0000  63.2500 Du        
   2382 ****       -12.2500  13.0000  63.5000 Du        
   2383 ****       -12.2500  13.0000  63.7500 Du        
   2384 ****       -12.2500  13.0000  64.0000 Du        
   2385 ****       -12.2500  13.0000  64.2500 Du        
   2386 ****       -12.2500  13.0000  64.5000 Du        
   2387 ****       -12.2500  13.0000  64.7500 Du        
   2388 ****       -12.2500  13.0000  65.0000 Du        
   2389 ****       -12.2500  13.0000  65.2500 Du        
   2390 ****       -12.2500  13.0000  65.5000 Du        
   2391 ****       -12.2500  13.0000  65.7500 Du        
   2392 ****       -12.2500  13.2500  63.0000 Du        
   2393 ****       -12.2500  13.2500  63.2500 Du        
   2394 ****       -12.2500  13.2500  63.5000 Du        
   2395 ****       -12.2500  13.2500  63.7500 Du        
   2396 ****       -12.2500  13.2500  64.0000 Du        
   2397 ****       -12.2500  13.2500  64.2500 Du        
   2398 ****       -12.2500  13.2500  64.5000 Du        
   2399 ****       -12.2500  13.2500  64.7500 Du        
   2400 ****       -12.2500  13.2500  65.0000 Du        
   2401 ****       -12.2500  13.2500  65.2500 Du        
   2402 ****       -12.2500  13.2500  65.5000 Du        
   2403 ****       -12.2500  13.2500  65.7500 Du        
   2404 ****       -12.2500  13.2500  70.5000 Du        
   2405 ****       -12.2500  13.5000  63.2500 Du        
   2406 ****       -12.2500  13.5000  63.5000 Du        
   2407 ****       -12.2500  13.5000  63.7500 Du        
   2408 ****       -12.2500  13.5000  64.0000 Du        
   2409 ****       -12.2500  13.5000  64.2500 Du        
   2410 ****       -12.2500  13.5000  64.5000 Du        
   2411 ****       -12.2500  13.5000  64.7500 Du        
   2412 ****       -12.2500  13.5000  65.0000 Du        
   2413 ****       -12.2500  13.5000  65.2500 Du        
   2414 ****       -12.2500  13.5000  65.5000 Du        
   2415 ****       -12.2500  13.5000  65.7500 Du        
   2416 ****       -12.2500  13.5000  70.0000 Du        
   2417 ****       -12.2500  13.5000  70.2500 Du        
   2418 ****       -12.2500  13.5000  70.5000 Du        
   2419 ****       -12.2500  13.5000  70.7500 Du        
   2420 ****       -12.2500  13.5000  71.0000 Du        
   2421 ****       -12.2500  13.7500  63.2500 Du        
   2422 ****       -12.2500  13.7500  63.5000 Du        
   2423 ****       -12.2500  13.7500  63.7500 Du        
   2424 ****       -12.2500  13.7500  64.0000 Du        
   2425 ****       -12.2500  13.7500  64.2500 Du        
   2426 ****       -12.2500  13.7500  64.5000 Du        
   2427 ****       -12.2500  13.7500  64.7500 Du        
   2428 ****       -12.2500  13.7500  65.0000 Du        
   2429 ****       -12.2500  13.7500  65.2500 Du        
   2430 ****       -12.2500  13.7500  65.5000 Du        
   2431 ****       -12.2500  13.7500  65.7500 Du        
   2432 ****       -12.2500  13.7500  69.7500 Du        
   2433 ****       -12.2500  13.7500  70.0000 Du        
   2434 ****       -12.2500  13.7500  70.2500 Du        
   2435 ****       -12.2500  13.7500  70.5000 Du        
   2436 ****       -12.2500  13.7500  70.7500 Du        
   2437 ****       -12.2500  13.7500  71.0000 Du        
   2438 ****       -12.2500  13.7500  71.2500 Du        
   2439 ****       -12.2500  14.0000  63.2500 Du        
   2440 ****       -12.2500  14.0000  63.5000 Du        
   2441 ****       -12.2500  14.0000  63.7500 Du        
   2442 ****       -12.2500  14.0000  64.0000 Du        
   2443 ****       -12.2500  14.0000  64.2500 Du        
   2444 ****       -12.2500  14.0000  64.5000 Du        
   2445 ****       -12.2500  14.0000  64.7500 Du        
   2446 ****       -12.2500  14.0000  65.0000 Du        
   2447 ****       -12.2500  14.0000  65.2500 Du        
   2448 ****       -12.2500  14.0000  65.5000 Du        
   2449 ****       -12.2500  14.0000  65.7500 Du        
   2450 ****       -12.2500  14.0000  69.5000 Du        
   2451 ****       -12.2500  14.0000  69.7500 Du        
   2452 ****       -12.2500  14.0000  70.0000 Du        
   2453 ****       -12.2500  14.0000  70.2500 Du        
   2454 ****       -12.2500  14.0000  70.5000 Du        
   2455 ****       -12.2500  14.0000  70.7500 Du        
   2456 ****       -12.2500  14.0000  71.0000 Du        
   2457 ****       -12.2500  14.0000  71.2500 Du        
   2458 ****       -12.2500  14.0000  71.5000 Du        
   2459 ****       -12.2500  14.2500  63.5000 Du        
   2460 ****       -12.2500  14.2500  63.7500 Du        
   2461 ****       -12.2500  14.2500  64.0000 Du        
   2462 ****       -12.2500  14.2500  64.2500 Du        
   2463 ****       -12.2500  14.2500  64.5000 Du        
   2464 ****       -12.2500  14.2500  64.7500 Du        
   2465 ****       -12.2500  14.2500  65.0000 Du        
   2466 ****       -12.2500  14.2500  65.2500 Du        
   2467 ****       -12.2500  14.2500  69.2500 Du        
   2468 ****       -12.2500  14.2500  69.5000 Du        
   2469 ****       -12.2500  14.2500  69.7500 Du        
   2470 ****       -12.2500  14.2500  70.0000 Du        
   2471 ****       -12.2500  14.2500  70.2500 Du        
   2472 ****       -12.2500  14.2500  70.5000 Du        
   2473 ****       -12.2500  14.2500  70.7500 Du        
   2474 ****       -12.2500  14.2500  71.0000 Du        
   2475 ****       -12.2500  14.2500  71.2500 Du        
   2476 ****       -12.2500  14.2500  71.5000 Du        
   2477 ****       -12.2500  14.2500  71.7500 Du        
   2478 ****       -12.2500  14.2500  72.0000 Du        
   2479 ****       -12.2500  14.5000  63.5000 Du        
   2480 ****       -12.2500  14.5000  63.7500 Du        
   2481 ****       -12.2500  14.5000  64.0000 Du        
   2482 ****       -12.2500  14.5000  64.2500 Du        
   2483 ****       -12.2500  14.5000  64.5000 Du        
   2484 ****       -12.2500  14.5000  64.7500 Du        
   2485 ****       -12.2500  14.5000  69.0000 Du        
   2486 ****       -12.2500  14.5000  69.2500 Du        
   2487 ****       -12.2500  14.5000  69.5000 Du        
   2488 ****       -12.2500  14.5000  69.7500 Du        
   2489 ****       -12.2500  14.5000  70.0000 Du        
   2490 ****       -12.2500  14.5000  70.2500 Du        
   2491 ****       -12.2500  14.5000  70.5000 Du        
   2492 ****       -12.2500  14.5000  70.7500 Du        
   2493 ****       -12.2500  14.5000  71.0000 Du        
   2494 ****       -12.2500  14.5000  71.2500 Du        
   2495 ****       -12.2500  14.5000  71.5000 Du        
   2496 ****       -12.2500  14.5000  71.7500 Du        
   2497 ****       -12.2500  14.5000  72.0000 Du        
   2498 ****       -12.2500  14.5000  72.2500 Du        
   2499 ****       -12.2500  14.5000  72.5000 Du        
   2500 ****       -12.2500  14.7500  63.7500 Du        
   2501 ****       -12.2500  14.7500  64.0000 Du        
   2502 ****       -12.2500  14.7500  64.2500 Du        
   2503 ****       -12.2500  14.7500  69.0000 Du        
   2504 ****       -12.2500  14.7500  69.2500 Du        
   2505 ****       -12.2500  14.7500  69.5000 Du        
   2506 ****       -12.2500  14.7500  69.7500 Du        
   2507 ****       -12.2500  14.7500  70.0000 Du        
   2508 ****       -12.2500  14.7500  70.2500 Du        
   2509 ****       -12.2500  14.7500  70.5000 Du        
   2510 ****       -12.2500  14.7500  70.7500 Du        
   2511 ****       -12.2500  14.7500  71.0000 Du        
   2512 ****       -12.2500  14.7500  71.2500 Du        
   2513 ****       -12.2500  14.7500  71.5000 Du        
   2514 ****       -12.2500  14.7500  71.7500 Du        
   2515 ****       -12.2500  14.7500  72.0000 Du        
   2516 ****       -12.2500  14.7500  72.2500 Du        
   2517 ****       -12.2500  14.7500  72.5000 Du        
   2518 ****       -12.2500  14.7500  72.7500 Du        
   2519 ****       -12.2500  14.7500  73.0000 Du        
   2520 ****       -12.2500  14.7500  73.2500 Du        
   2521 ****       -12.2500  15.0000  68.7500 Du        
   2522 ****       -12.2500  15.0000  69.0000 Du        
   2523 ****       -12.2500  15.0000  69.2500 Du        
   2524 ****       -12.2500  15.0000  69.5000 Du        
   2525 ****       -12.2500  15.0000  69.7500 Du        
   2526 ****       -12.2500  15.0000  70.0000 Du        
   2527 ****       -12.2500  15.0000  70.2500 Du        
   2528 ****       -12.2500  15.0000  70.5000 Du        
   2529 ****       -12.2500  15.0000  70.7500 Du        
   2530 ****       -12.2500  15.0000  71.0000 Du        
   2531 ****       -12.2500  15.0000  71.2500 Du        
   2532 ****       -12.2500  15.0000  71.5000 Du        
   2533 ****       -12.2500  15.0000  71.7500 Du        
   2534 ****       -12.2500  15.0000  72.0000 Du        
   2535 ****       -12.2500  15.0000  72.2500 Du        
   2536 ****       -12.2500  15.0000  72.5000 Du        
   2537 ****       -12.2500  15.0000  72.7500 Du        
   2538 ****       -12.2500  15.0000  73.0000 Du        
   2539 ****       -12.2500  15.0000  73.2500 Du        
   2540 ****       -12.2500  15.0000  73.5000 Du        
   2541 ****       -12.2500  15.0000  73.7500 Du        
   2542 ****       -12.2500  15.2500  69.0000 Du        
   2543 ****       -12.2500  15.2500  69.2500 Du        
   2544 ****       -12.2500  15.2500  69.5000 Du        
   2545 ****       -12.2500  15.2500  69.7500 Du        
   2546 ****       -12.2500  15.2500  70.0000 Du        
   2547 ****       -12.2500  15.2500  70.2500 Du        
   2548 ****       -12.2500  15.2500  70.5000 Du        
   2549 ****       -12.2500  15.2500  70.7500 Du        
   2550 ****       -12.2500  15.2500  71.0000 Du        
   2551 ****       -12.2500  15.2500  71.2500 Du        
   2552 ****       -12.2500  15.2500  71.5000 Du        
   2553 ****       -12.2500  15.2500  71.7500 Du        
   2554 ****       -12.2500  15.2500  72.0000 Du        
   2555 ****       -12.2500  15.2500  72.2500 Du        
   2556 ****       -12.2500  15.2500  72.5000 Du        
   2557 ****       -12.2500  15.2500  72.7500 Du        
   2558 ****       -12.2500  15.2500  73.0000 Du        
   2559 ****       -12.2500  15.2500  73.2500 Du        
   2560 ****       -12.2500  15.2500  73.5000 Du        
   2561 ****       -12.2500  15.2500  73.7500 Du        
   2562 ****       -12.2500  15.2500  74.0000 Du        
   2563 ****       -12.2500  15.2500  74.2500 Du        
   2564 ****       -12.2500  15.5000  69.0000 Du        
   2565 ****       -12.2500  15.5000  69.2500 Du        
   2566 ****       -12.2500  15.5000  69.5000 Du        
   2567 ****       -12.2500  15.5000  69.7500 Du        
   2568 ****       -12.2500  15.5000  70.0000 Du        
   2569 ****       -12.2500  15.5000  70.2500 Du        
   2570 ****       -12.2500  15.5000  70.5000 Du        
   2571 ****       -12.2500  15.5000  70.7500 Du        
   2572 ****       -12.2500  15.5000  71.0000 Du        
   2573 ****       -12.2500  15.5000  71.2500 Du        
   2574 ****       -12.2500  15.5000  71.5000 Du        
   2575 ****       -12.2500  15.5000  71.7500 Du        
   2576 ****       -12.2500  15.5000  72.0000 Du        
   2577 ****       -12.2500  15.5000  72.2500 Du        
   2578 ****       -12.2500  15.5000  72.5000 Du        
   2579 ****       -12.2500  15.5000  72.7500 Du        
   2580 ****       -12.2500  15.5000  73.0000 Du        
   2581 ****       -12.2500  15.5000  73.2500 Du        
   2582 ****       -12.2500  15.5000  73.5000 Du        
   2583 ****       -12.2500  15.5000  73.7500 Du        
   2584 ****       -12.2500  15.5000  74.0000 Du        
   2585 ****       -12.2500  15.5000  74.2500 Du        
   2586 ****       -12.2500  15.5000  74.5000 Du        
   2587 ****       -12.2500  15.7500  69.0000 Du        
   2588 ****       -12.2500  15.7500  69.2500 Du        
   2589 ****       -12.2500  15.7500  69.5000 Du        
   2590 ****       -12.2500  15.7500  69.7500 Du        
   2591 ****       -12.2500  15.7500  70.0000 Du        
   2592 ****       -12.2500  15.7500  70.2500 Du        
   2593 ****       -12.2500  15.7500  70.5000 Du        
   2594 ****       -12.2500  15.7500  70.7500 Du        
   2595 ****       -12.2500  15.7500  71.0000 Du        
   2596 ****       -12.2500  15.7500  71.2500 Du        
   2597 ****       -12.2500  15.7500  71.5000 Du        
   2598 ****       -12.2500  15.7500  71.7500 Du        
   2599 ****       -12.2500  15.7500  72.0000 Du        
   2600 ****       -12.2500  15.7500  72.2500 Du        
   2601 ****       -12.2500  15.7500  72.5000 Du        
   2602 ****       -12.2500  15.7500  72.7500 Du        
   2603 ****       -12.2500  15.7500  73.0000 Du        
   2604 ****       -12.2500  15.7500  73.2500 Du        
   2605 ****       -12.2500  15.7500  73.5000 Du        
   2606 ****       -12.2500  15.7500  73.7500 Du        
   2607 ****       -12.2500  15.7500  74.0000 Du        
   2608 ****       -12.2500  15.7500  74.2500 Du        
   2609 ****       -12.2500  15.7500  74.5000 Du        
   2610 ****       -12.2500  16.0000  69.2500 Du        
   2611 ****       -12.2500  16.0000  69.5000 Du        
   2612 ****       -12.2500  16.0000  69.7500 Du        
   2613 ****       -12.2500  16.0000  70.0000 Du        
   2614 ****       -12.2500  16.0000  70.2500 Du        
   2615 ****       -12.2500  16.0000  70.5000 Du        
   2616 ****       -12.2500  16.0000  70.7500 Du        
   2617 ****       -12.2500  16.0000  71.0000 Du        
   2618 ****       -12.2500  16.0000  71.2500 Du        
   2619 ****       -12.2500  16.0000  71.5000 Du        
   2620 ****       -12.2500  16.0000  71.7500 Du        
   2621 ****       -12.2500  16.0000  72.0000 Du        
   2622 ****       -12.2500  16.0000  72.2500 Du        
   2623 ****       -12.2500  16.0000  72.5000 Du        
   2624 ****       -12.2500  16.0000  72.7500 Du        
   2625 ****       -12.2500  16.0000  73.0000 Du        
   2626 ****       -12.2500  16.0000  73.2500 Du        
   2627 ****       -12.2500  16.0000  73.5000 Du        
   2628 ****       -12.2500  16.0000  73.7500 Du        
   2629 ****       -12.2500  16.0000  74.0000 Du        
   2630 ****       -12.2500  16.0000  74.2500 Du        
   2631 ****       -12.2500  16.0000  74.5000 Du        
   2632 ****       -12.2500  16.2500  70.7500 Du        
   2633 ****       -12.2500  16.2500  71.0000 Du        
   2634 ****       -12.2500  16.2500  71.2500 Du        
   2635 ****       -12.2500  16.2500  71.5000 Du        
   2636 ****       -12.2500  16.2500  71.7500 Du        
   2637 ****       -12.2500  16.2500  72.0000 Du        
   2638 ****       -12.2500  16.2500  72.2500 Du        
   2639 ****       -12.2500  16.2500  72.5000 Du        
   2640 ****       -12.2500  16.2500  72.7500 Du        
   2641 ****       -12.2500  16.2500  73.0000 Du        
   2642 ****       -12.2500  16.2500  73.2500 Du        
   2643 ****       -12.2500  16.2500  73.5000 Du        
   2644 ****       -12.2500  16.2500  73.7500 Du        
   2645 ****       -12.2500  16.2500  74.0000 Du        
   2646 ****       -12.2500  16.5000  72.0000 Du        
   2647 ****       -12.2500  16.5000  72.2500 Du        
   2648 ****       -12.2500  16.5000  72.5000 Du        
   2649 ****       -12.2500  16.5000  72.7500 Du        
   2650 ****       -12.2500  16.5000  73.0000 Du        
   2651 ****       -12.2500  16.5000  73.2500 Du        
   2652 ****       -12.2500  16.5000  73.5000 Du        
   2653 ****       -12.0000   6.2500  72.2500 Du        
   2654 ****       -12.0000   6.2500  72.5000 Du        
   2655 ****       -12.0000   6.2500  72.7500 Du        
   2656 ****       -12.0000   6.5000  71.7500 Du        
   2657 ****       -12.0000   6.5000  72.0000 Du        
   2658 ****       -12.0000   6.5000  72.2500 Du        
   2659 ****       -12.0000   6.5000  72.5000 Du        
   2660 ****       -12.0000   6.5000  72.7500 Du        
   2661 ****       -12.0000   6.7500  70.7500 Du        
   2662 ****       -12.0000   6.7500  71.0000 Du        
   2663 ****       -12.0000   6.7500  71.2500 Du        
   2664 ****       -12.0000   6.7500  71.5000 Du        
   2665 ****       -12.0000   6.7500  71.7500 Du        
   2666 ****       -12.0000   6.7500  72.0000 Du        
   2667 ****       -12.0000   6.7500  72.2500 Du        
   2668 ****       -12.0000   6.7500  72.5000 Du        
   2669 ****       -12.0000   6.7500  72.7500 Du        
   2670 ****       -12.0000   7.0000  70.5000 Du        
   2671 ****       -12.0000   7.0000  70.7500 Du        
   2672 ****       -12.0000   7.0000  71.0000 Du        
   2673 ****       -12.0000   7.0000  71.2500 Du        
   2674 ****       -12.0000   7.0000  71.5000 Du        
   2675 ****       -12.0000   7.0000  71.7500 Du        
   2676 ****       -12.0000   7.0000  72.0000 Du        
   2677 ****       -12.0000   7.0000  72.2500 Du        
   2678 ****       -12.0000   7.0000  72.5000 Du        
   2679 ****       -12.0000   7.0000  72.7500 Du        
   2680 ****       -12.0000   7.2500  70.5000 Du        
   2681 ****       -12.0000   7.2500  70.7500 Du        
   2682 ****       -12.0000   7.2500  71.0000 Du        
   2683 ****       -12.0000   7.2500  71.2500 Du        
   2684 ****       -12.0000   7.2500  71.5000 Du        
   2685 ****       -12.0000   7.2500  71.7500 Du        
   2686 ****       -12.0000   7.2500  72.0000 Du        
   2687 ****       -12.0000   7.2500  72.2500 Du        
   2688 ****       -12.0000   7.2500  72.5000 Du        
   2689 ****       -12.0000   7.2500  72.7500 Du        
   2690 ****       -12.0000   7.5000  70.5000 Du        
   2691 ****       -12.0000   7.5000  70.7500 Du        
   2692 ****       -12.0000   7.5000  71.0000 Du        
   2693 ****       -12.0000   7.5000  71.2500 Du        
   2694 ****       -12.0000   7.5000  71.5000 Du        
   2695 ****       -12.0000   7.5000  71.7500 Du        
   2696 ****       -12.0000   7.5000  72.0000 Du        
   2697 ****       -12.0000   7.5000  72.2500 Du        
   2698 ****       -12.0000   7.5000  72.5000 Du        
   2699 ****       -12.0000   7.5000  72.7500 Du        
   2700 ****       -12.0000   7.7500  70.5000 Du        
   2701 ****       -12.0000   7.7500  70.7500 Du        
   2702 ****       -12.0000   7.7500  71.0000 Du        
   2703 ****       -12.0000   7.7500  71.2500 Du        
   2704 ****       -12.0000   7.7500  71.5000 Du        
   2705 ****       -12.0000   7.7500  71.7500 Du        
   2706 ****       -12.0000   7.7500  72.0000 Du        
   2707 ****       -12.0000   7.7500  72.2500 Du        
   2708 ****       -12.0000   7.7500  72.5000 Du        
   2709 ****       -12.0000   7.7500  72.7500 Du        
   2710 ****       -12.0000   8.0000  70.5000 Du        
   2711 ****       -12.0000   8.0000  70.7500 Du        
   2712 ****       -12.0000   8.0000  71.0000 Du        
   2713 ****       -12.0000   8.0000  71.2500 Du        
   2714 ****       -12.0000   8.0000  71.5000 Du        
   2715 ****       -12.0000   8.0000  71.7500 Du        
   2716 ****       -12.0000   8.0000  72.0000 Du        
   2717 ****       -12.0000   8.0000  72.2500 Du        
   2718 ****       -12.0000   8.0000  72.5000 Du        
   2719 ****       -12.0000   8.2500  70.5000 Du        
   2720 ****       -12.0000   8.2500  70.7500 Du        
   2721 ****       -12.0000   8.2500  71.0000 Du        
   2722 ****       -12.0000   8.2500  71.2500 Du        
   2723 ****       -12.0000   8.2500  71.5000 Du        
   2724 ****       -12.0000   8.2500  71.7500 Du        
   2725 ****       -12.0000   8.2500  72.0000 Du        
   2726 ****       -12.0000   8.2500  72.2500 Du        
   2727 ****       -12.0000   8.2500  72.5000 Du        
   2728 ****       -12.0000   8.5000  70.5000 Du        
   2729 ****       -12.0000   8.5000  70.7500 Du        
   2730 ****       -12.0000   8.5000  71.0000 Du        
   2731 ****       -12.0000   8.5000  71.2500 Du        
   2732 ****       -12.0000   8.5000  71.5000 Du        
   2733 ****       -12.0000   8.5000  71.7500 Du        
   2734 ****       -12.0000   8.5000  72.0000 Du        
   2735 ****       -12.0000   8.7500  70.5000 Du        
   2736 ****       -12.0000   8.7500  70.7500 Du        
   2737 ****       -12.0000   8.7500  71.0000 Du        
   2738 ****       -12.0000   8.7500  71.2500 Du        
   2739 ****       -12.0000   8.7500  71.5000 Du        
   2740 ****       -12.0000   8.7500  71.7500 Du        
   2741 ****       -12.0000   9.0000  70.2500 Du        
   2742 ****       -12.0000   9.0000  70.5000 Du        
   2743 ****       -12.0000   9.0000  70.7500 Du        
   2744 ****       -12.0000   9.0000  71.0000 Du        
   2745 ****       -12.0000   9.0000  71.2500 Du        
   2746 ****       -12.0000   9.0000  71.5000 Du        
   2747 ****       -12.0000   9.0000  71.7500 Du        
   2748 ****       -12.0000   9.2500  70.2500 Du        
   2749 ****       -12.0000   9.2500  70.5000 Du        
   2750 ****       -12.0000   9.2500  70.7500 Du        
   2751 ****       -12.0000   9.2500  71.0000 Du        
   2752 ****       -12.0000   9.2500  71.2500 Du        
   2753 ****       -12.0000   9.2500  71.5000 Du        
   2754 ****       -12.0000   9.5000  70.2500 Du        
   2755 ****       -12.0000   9.5000  70.5000 Du        
   2756 ****       -12.0000   9.5000  70.7500 Du        
   2757 ****       -12.0000   9.5000  71.0000 Du        
   2758 ****       -12.0000   9.5000  71.2500 Du        
   2759 ****       -12.0000   9.7500  70.0000 Du        
   2760 ****       -12.0000   9.7500  70.2500 Du        
   2761 ****       -12.0000   9.7500  70.5000 Du        
   2762 ****       -12.0000   9.7500  70.7500 Du        
   2763 ****       -12.0000   9.7500  71.0000 Du        
   2764 ****       -12.0000   9.7500  71.2500 Du        
   2765 ****       -12.0000  10.0000  70.0000 Du        
   2766 ****       -12.0000  10.0000  70.2500 Du        
   2767 ****       -12.0000  10.0000  70.5000 Du        
   2768 ****       -12.0000  10.0000  70.7500 Du        
   2769 ****       -12.0000  10.0000  71.0000 Du        
   2770 ****       -12.0000  10.2500  70.0000 Du        
   2771 ****       -12.0000  10.2500  70.2500 Du        
   2772 ****       -12.0000  10.2500  70.5000 Du        
   2773 ****       -12.0000  10.2500  70.7500 Du        
   2774 ****       -12.0000  10.5000  70.0000 Du        
   2775 ****       -12.0000  10.5000  70.2500 Du        
   2776 ****       -12.0000  10.5000  70.5000 Du        
   2777 ****       -12.0000  10.7500  70.0000 Du        
   2778 ****       -12.0000  10.7500  70.2500 Du        
   2779 ****       -12.0000  11.5000  63.0000 Du        
   2780 ****       -12.0000  11.7500  63.0000 Du        
   2781 ****       -12.0000  11.7500  63.2500 Du        
   2782 ****       -12.0000  11.7500  63.5000 Du        
   2783 ****       -12.0000  11.7500  63.7500 Du        
   2784 ****       -12.0000  12.0000  63.0000 Du        
   2785 ****       -12.0000  12.0000  63.2500 Du        
   2786 ****       -12.0000  12.0000  63.5000 Du        
   2787 ****       -12.0000  12.0000  63.7500 Du        
   2788 ****       -12.0000  12.0000  64.0000 Du        
   2789 ****       -12.0000  12.0000  64.2500 Du        
   2790 ****       -12.0000  12.0000  64.5000 Du        
   2791 ****       -12.0000  12.0000  64.7500 Du        
   2792 ****       -12.0000  12.0000  65.0000 Du        
   2793 ****       -12.0000  12.2500  63.0000 Du        
   2794 ****       -12.0000  12.2500  63.2500 Du        
   2795 ****       -12.0000  12.2500  63.5000 Du        
   2796 ****       -12.0000  12.2500  63.7500 Du        
   2797 ****       -12.0000  12.2500  64.0000 Du        
   2798 ****       -12.0000  12.2500  64.2500 Du        
   2799 ****       -12.0000  12.2500  64.5000 Du        
   2800 ****       -12.0000  12.2500  64.7500 Du        
   2801 ****       -12.0000  12.2500  65.0000 Du        
   2802 ****       -12.0000  12.2500  65.2500 Du        
   2803 ****       -12.0000  12.2500  65.5000 Du        
   2804 ****       -12.0000  12.5000  62.7500 Du        
   2805 ****       -12.0000  12.5000  63.0000 Du        
   2806 ****       -12.0000  12.5000  63.2500 Du        
   2807 ****       -12.0000  12.5000  63.5000 Du        
   2808 ****       -12.0000  12.5000  63.7500 Du        
   2809 ****       -12.0000  12.5000  64.0000 Du        
   2810 ****       -12.0000  12.5000  64.2500 Du        
   2811 ****       -12.0000  12.5000  64.5000 Du        
   2812 ****       -12.0000  12.5000  64.7500 Du        
   2813 ****       -12.0000  12.5000  65.0000 Du        
   2814 ****       -12.0000  12.5000  65.2500 Du        
   2815 ****       -12.0000  12.5000  65.5000 Du        
   2816 ****       -12.0000  12.5000  65.7500 Du        
   2817 ****       -12.0000  12.7500  62.7500 Du        
   2818 ****       -12.0000  12.7500  63.0000 Du        
   2819 ****       -12.0000  12.7500  63.2500 Du        
   2820 ****       -12.0000  12.7500  63.5000 Du        
   2821 ****       -12.0000  12.7500  63.7500 Du        
   2822 ****       -12.0000  12.7500  64.0000 Du        
   2823 ****       -12.0000  12.7500  64.2500 Du        
   2824 ****       -12.0000  12.7500  64.5000 Du        
   2825 ****       -12.0000  12.7500  64.7500 Du        
   2826 ****       -12.0000  12.7500  65.0000 Du        
   2827 ****       -12.0000  12.7500  65.2500 Du        
   2828 ****       -12.0000  12.7500  65.5000 Du        
   2829 ****       -12.0000  12.7500  65.7500 Du        
   2830 ****       -12.0000  13.0000  63.0000 Du        
   2831 ****       -12.0000  13.0000  63.2500 Du        
   2832 ****       -12.0000  13.0000  63.5000 Du        
   2833 ****       -12.0000  13.0000  63.7500 Du        
   2834 ****       -12.0000  13.0000  64.0000 Du        
   2835 ****       -12.0000  13.0000  64.2500 Du        
   2836 ****       -12.0000  13.0000  64.5000 Du        
   2837 ****       -12.0000  13.0000  64.7500 Du        
   2838 ****       -12.0000  13.0000  65.0000 Du        
   2839 ****       -12.0000  13.0000  65.2500 Du        
   2840 ****       -12.0000  13.0000  65.5000 Du        
   2841 ****       -12.0000  13.0000  65.7500 Du        
   2842 ****       -12.0000  13.0000  66.0000 Du        
   2843 ****       -12.0000  13.2500  63.0000 Du        
   2844 ****       -12.0000  13.2500  63.2500 Du        
   2845 ****       -12.0000  13.2500  63.5000 Du        
   2846 ****       -12.0000  13.2500  63.7500 Du        
   2847 ****       -12.0000  13.2500  64.0000 Du        
   2848 ****       -12.0000  13.2500  64.2500 Du        
   2849 ****       -12.0000  13.2500  64.5000 Du        
   2850 ****       -12.0000  13.2500  64.7500 Du        
   2851 ****       -12.0000  13.2500  65.0000 Du        
   2852 ****       -12.0000  13.2500  65.2500 Du        
   2853 ****       -12.0000  13.2500  65.5000 Du        
   2854 ****       -12.0000  13.2500  65.7500 Du        
   2855 ****       -12.0000  13.2500  66.0000 Du        
   2856 ****       -12.0000  13.2500  70.0000 Du        
   2857 ****       -12.0000  13.5000  63.2500 Du        
   2858 ****       -12.0000  13.5000  63.5000 Du        
   2859 ****       -12.0000  13.5000  63.7500 Du        
   2860 ****       -12.0000  13.5000  64.0000 Du        
   2861 ****       -12.0000  13.5000  64.2500 Du        
   2862 ****       -12.0000  13.5000  64.5000 Du        
   2863 ****       -12.0000  13.5000  64.7500 Du        
   2864 ****       -12.0000  13.5000  65.0000 Du        
   2865 ****       -12.0000  13.5000  65.2500 Du        
   2866 ****       -12.0000  13.5000  65.5000 Du        
   2867 ****       -12.0000  13.5000  65.7500 Du        
   2868 ****       -12.0000  13.5000  66.0000 Du        
   2869 ****       -12.0000  13.5000  69.7500 Du        
   2870 ****       -12.0000  13.5000  70.0000 Du        
   2871 ****       -12.0000  13.5000  70.2500 Du        
   2872 ****       -12.0000  13.5000  70.5000 Du        
   2873 ****       -12.0000  13.5000  70.7500 Du        
   2874 ****       -12.0000  13.7500  63.2500 Du        
   2875 ****       -12.0000  13.7500  63.5000 Du        
   2876 ****       -12.0000  13.7500  63.7500 Du        
   2877 ****       -12.0000  13.7500  64.0000 Du        
   2878 ****       -12.0000  13.7500  64.2500 Du        
   2879 ****       -12.0000  13.7500  64.5000 Du        
   2880 ****       -12.0000  13.7500  64.7500 Du        
   2881 ****       -12.0000  13.7500  65.0000 Du        
   2882 ****       -12.0000  13.7500  65.2500 Du        
   2883 ****       -12.0000  13.7500  65.5000 Du        
   2884 ****       -12.0000  13.7500  65.7500 Du        
   2885 ****       -12.0000  13.7500  66.0000 Du        
   2886 ****       -12.0000  13.7500  69.2500 Du        
   2887 ****       -12.0000  13.7500  69.5000 Du        
   2888 ****       -12.0000  13.7500  69.7500 Du        
   2889 ****       -12.0000  13.7500  70.0000 Du        
   2890 ****       -12.0000  13.7500  70.2500 Du        
   2891 ****       -12.0000  13.7500  70.5000 Du        
   2892 ****       -12.0000  13.7500  70.7500 Du        
   2893 ****       -12.0000  13.7500  71.0000 Du        
   2894 ****       -12.0000  14.0000  63.5000 Du        
   2895 ****       -12.0000  14.0000  63.7500 Du        
   2896 ****       -12.0000  14.0000  64.0000 Du        
   2897 ****       -12.0000  14.0000  64.2500 Du        
   2898 ****       -12.0000  14.0000  64.5000 Du        
   2899 ****       -12.0000  14.0000  64.7500 Du        
   2900 ****       -12.0000  14.0000  65.0000 Du        
   2901 ****       -12.0000  14.0000  65.2500 Du        
   2902 ****       -12.0000  14.0000  65.5000 Du        
   2903 ****       -12.0000  14.0000  65.7500 Du        
   2904 ****       -12.0000  14.0000  66.0000 Du        
   2905 ****       -12.0000  14.0000  66.2500 Du        
   2906 ****       -12.0000  14.0000  69.0000 Du        
   2907 ****       -12.0000  14.0000  69.2500 Du        
   2908 ****       -12.0000  14.0000  69.5000 Du        
   2909 ****       -12.0000  14.0000  69.7500 Du        
   2910 ****       -12.0000  14.0000  70.0000 Du        
   2911 ****       -12.0000  14.0000  70.2500 Du        
   2912 ****       -12.0000  14.0000  70.5000 Du        
   2913 ****       -12.0000  14.0000  70.7500 Du        
   2914 ****       -12.0000  14.0000  71.0000 Du        
   2915 ****       -12.0000  14.0000  71.2500 Du        
   2916 ****       -12.0000  14.2500  63.5000 Du        
   2917 ****       -12.0000  14.2500  63.7500 Du        
   2918 ****       -12.0000  14.2500  64.0000 Du        
   2919 ****       -12.0000  14.2500  64.2500 Du        
   2920 ****       -12.0000  14.2500  64.5000 Du        
   2921 ****       -12.0000  14.2500  64.7500 Du        
   2922 ****       -12.0000  14.2500  65.0000 Du        
   2923 ****       -12.0000  14.2500  65.2500 Du        
   2924 ****       -12.0000  14.2500  65.5000 Du        
   2925 ****       -12.0000  14.2500  65.7500 Du        
   2926 ****       -12.0000  14.2500  68.7500 Du        
   2927 ****       -12.0000  14.2500  69.0000 Du        
   2928 ****       -12.0000  14.2500  69.2500 Du        
   2929 ****       -12.0000  14.2500  69.5000 Du        
   2930 ****       -12.0000  14.2500  69.7500 Du        
   2931 ****       -12.0000  14.2500  70.0000 Du        
   2932 ****       -12.0000  14.2500  70.2500 Du        
   2933 ****       -12.0000  14.2500  70.5000 Du        
   2934 ****       -12.0000  14.2500  70.7500 Du        
   2935 ****       -12.0000  14.2500  71.0000 Du        
   2936 ****       -12.0000  14.2500  71.2500 Du        
   2937 ****       -12.0000  14.2500  71.5000 Du        
   2938 ****       -12.0000  14.2500  71.7500 Du        
   2939 ****       -12.0000  14.5000  63.7500 Du        
   2940 ****       -12.0000  14.5000  64.0000 Du        
   2941 ****       -12.0000  14.5000  64.2500 Du        
   2942 ****       -12.0000  14.5000  64.5000 Du        
   2943 ****       -12.0000  14.5000  64.7500 Du        
   2944 ****       -12.0000  14.5000  65.0000 Du        
   2945 ****       -12.0000  14.5000  68.5000 Du        
   2946 ****       -12.0000  14.5000  68.7500 Du        
   2947 ****       -12.0000  14.5000  69.0000 Du        
   2948 ****       -12.0000  14.5000  69.2500 Du        
   2949 ****       -12.0000  14.5000  69.5000 Du        
   2950 ****       -12.0000  14.5000  69.7500 Du        
   2951 ****       -12.0000  14.5000  70.0000 Du        
   2952 ****       -12.0000  14.5000  70.2500 Du        
   2953 ****       -12.0000  14.5000  70.5000 Du        
   2954 ****       -12.0000  14.5000  70.7500 Du        
   2955 ****       -12.0000  14.5000  71.0000 Du        
   2956 ****       -12.0000  14.5000  71.2500 Du        
   2957 ****       -12.0000  14.5000  71.5000 Du        
   2958 ****       -12.0000  14.5000  71.7500 Du        
   2959 ****       -12.0000  14.5000  72.0000 Du        
   2960 ****       -12.0000  14.5000  72.2500 Du        
   2961 ****       -12.0000  14.7500  63.7500 Du        
   2962 ****       -12.0000  14.7500  64.0000 Du        
   2963 ****       -12.0000  14.7500  64.2500 Du        
   2964 ****       -12.0000  14.7500  64.5000 Du        
   2965 ****       -12.0000  14.7500  68.5000 Du        
   2966 ****       -12.0000  14.7500  68.7500 Du        
   2967 ****       -12.0000  14.7500  69.0000 Du        
   2968 ****       -12.0000  14.7500  69.2500 Du        
   2969 ****       -12.0000  14.7500  69.5000 Du        
   2970 ****       -12.0000  14.7500  69.7500 Du        
   2971 ****       -12.0000  14.7500  70.0000 Du        
   2972 ****       -12.0000  14.7500  70.2500 Du        
   2973 ****       -12.0000  14.7500  70.5000 Du        
   2974 ****       -12.0000  14.7500  70.7500 Du        
   2975 ****       -12.0000  14.7500  71.0000 Du        
   2976 ****       -12.0000  14.7500  71.2500 Du        
   2977 ****       -12.0000  14.7500  71.5000 Du        
   2978 ****       -12.0000  14.7500  71.7500 Du        
   2979 ****       -12.0000  14.7500  72.0000 Du        
   2980 ****       -12.0000  14.7500  72.2500 Du        
   2981 ****       -12.0000  14.7500  72.5000 Du        
   2982 ****       -12.0000  14.7500  72.7500 Du        
   2983 ****       -12.0000  15.0000  64.0000 Du        
   2984 ****       -12.0000  15.0000  68.5000 Du        
   2985 ****       -12.0000  15.0000  68.7500 Du        
   2986 ****       -12.0000  15.0000  69.0000 Du        
   2987 ****       -12.0000  15.0000  69.2500 Du        
   2988 ****       -12.0000  15.0000  69.5000 Du        
   2989 ****       -12.0000  15.0000  69.7500 Du        
   2990 ****       -12.0000  15.0000  70.0000 Du        
   2991 ****       -12.0000  15.0000  70.2500 Du        
   2992 ****       -12.0000  15.0000  70.5000 Du        
   2993 ****       -12.0000  15.0000  70.7500 Du        
   2994 ****       -12.0000  15.0000  71.0000 Du        
   2995 ****       -12.0000  15.0000  71.2500 Du        
   2996 ****       -12.0000  15.0000  71.5000 Du        
   2997 ****       -12.0000  15.0000  71.7500 Du        
   2998 ****       -12.0000  15.0000  72.0000 Du        
   2999 ****       -12.0000  15.0000  72.2500 Du        
   3000 ****       -12.0000  15.0000  72.5000 Du        
   3001 ****       -12.0000  15.0000  72.7500 Du        
   3002 ****       -12.0000  15.0000  73.0000 Du        
   3003 ****       -12.0000  15.0000  73.2500 Du        
   3004 ****       -12.0000  15.2500  68.5000 Du        
   3005 ****       -12.0000  15.2500  68.7500 Du        
   3006 ****       -12.0000  15.2500  69.0000 Du        
   3007 ****       -12.0000  15.2500  69.2500 Du        
   3008 ****       -12.0000  15.2500  69.5000 Du        
   3009 ****       -12.0000  15.2500  69.7500 Du        
   3010 ****       -12.0000  15.2500  70.0000 Du        
   3011 ****       -12.0000  15.2500  70.2500 Du        
   3012 ****       -12.0000  15.2500  70.5000 Du        
   3013 ****       -12.0000  15.2500  70.7500 Du        
   3014 ****       -12.0000  15.2500  71.0000 Du        
   3015 ****       -12.0000  15.2500  71.2500 Du        
   3016 ****       -12.0000  15.2500  71.5000 Du        
   3017 ****       -12.0000  15.2500  71.7500 Du        
   3018 ****       -12.0000  15.2500  72.0000 Du        
   3019 ****       -12.0000  15.2500  72.2500 Du        
   3020 ****       -12.0000  15.2500  72.5000 Du        
   3021 ****       -12.0000  15.2500  72.7500 Du        
   3022 ****       -12.0000  15.2500  73.0000 Du        
   3023 ****       -12.0000  15.2500  73.2500 Du        
   3024 ****       -12.0000  15.2500  73.5000 Du        
   3025 ****       -12.0000  15.2500  73.7500 Du        
   3026 ****       -12.0000  15.5000  68.7500 Du        
   3027 ****       -12.0000  15.5000  69.0000 Du        
   3028 ****       -12.0000  15.5000  69.2500 Du        
   3029 ****       -12.0000  15.5000  69.5000 Du        
   3030 ****       -12.0000  15.5000  69.7500 Du        
   3031 ****       -12.0000  15.5000  70.0000 Du        
   3032 ****       -12.0000  15.5000  70.2500 Du        
   3033 ****       -12.0000  15.5000  70.5000 Du        
   3034 ****       -12.0000  15.5000  70.7500 Du        
   3035 ****       -12.0000  15.5000  71.0000 Du        
   3036 ****       -12.0000  15.5000  71.2500 Du        
   3037 ****       -12.0000  15.5000  71.5000 Du        
   3038 ****       -12.0000  15.5000  71.7500 Du        
   3039 ****       -12.0000  15.5000  72.0000 Du        
   3040 ****       -12.0000  15.5000  72.2500 Du        
   3041 ****       -12.0000  15.5000  72.5000 Du        
   3042 ****       -12.0000  15.5000  72.7500 Du        
   3043 ****       -12.0000  15.5000  73.0000 Du        
   3044 ****       -12.0000  15.5000  73.2500 Du        
   3045 ****       -12.0000  15.5000  73.5000 Du        
   3046 ****       -12.0000  15.5000  73.7500 Du        
   3047 ****       -12.0000  15.7500  68.7500 Du        
   3048 ****       -12.0000  15.7500  69.0000 Du        
   3049 ****       -12.0000  15.7500  69.2500 Du        
   3050 ****       -12.0000  15.7500  69.5000 Du        
   3051 ****       -12.0000  15.7500  69.7500 Du        
   3052 ****       -12.0000  15.7500  70.0000 Du        
   3053 ****       -12.0000  15.7500  70.2500 Du        
   3054 ****       -12.0000  15.7500  70.5000 Du        
   3055 ****       -12.0000  15.7500  70.7500 Du        
   3056 ****       -12.0000  15.7500  71.0000 Du        
   3057 ****       -12.0000  15.7500  71.2500 Du        
   3058 ****       -12.0000  15.7500  71.5000 Du        
   3059 ****       -12.0000  15.7500  71.7500 Du        
   3060 ****       -12.0000  15.7500  72.0000 Du        
   3061 ****       -12.0000  15.7500  72.2500 Du        
   3062 ****       -12.0000  15.7500  72.5000 Du        
   3063 ****       -12.0000  15.7500  72.7500 Du        
   3064 ****       -12.0000  15.7500  73.0000 Du        
   3065 ****       -12.0000  15.7500  73.2500 Du        
   3066 ****       -12.0000  15.7500  73.5000 Du        
   3067 ****       -12.0000  15.7500  73.7500 Du        
   3068 ****       -12.0000  16.0000  69.0000 Du        
   3069 ****       -12.0000  16.0000  69.2500 Du        
   3070 ****       -12.0000  16.0000  69.5000 Du        
   3071 ****       -12.0000  16.0000  69.7500 Du        
   3072 ****       -12.0000  16.0000  70.0000 Du        
   3073 ****       -12.0000  16.0000  70.2500 Du        
   3074 ****       -12.0000  16.0000  70.5000 Du        
   3075 ****       -12.0000  16.0000  70.7500 Du        
   3076 ****       -12.0000  16.0000  71.0000 Du        
   3077 ****       -12.0000  16.0000  71.2500 Du        
   3078 ****       -12.0000  16.0000  71.5000 Du        
   3079 ****       -12.0000  16.0000  71.7500 Du        
   3080 ****       -12.0000  16.0000  72.0000 Du        
   3081 ****       -12.0000  16.0000  72.2500 Du        
   3082 ****       -12.0000  16.0000  72.5000 Du        
   3083 ****       -12.0000  16.0000  72.7500 Du        
   3084 ****       -12.0000  16.0000  73.0000 Du        
   3085 ****       -12.0000  16.0000  73.2500 Du        
   3086 ****       -12.0000  16.0000  73.5000 Du        
   3087 ****       -12.0000  16.2500  69.7500 Du        
   3088 ****       -12.0000  16.2500  70.0000 Du        
   3089 ****       -12.0000  16.2500  70.2500 Du        
   3090 ****       -12.0000  16.2500  70.5000 Du        
   3091 ****       -12.0000  16.2500  70.7500 Du        
   3092 ****       -12.0000  16.2500  71.0000 Du        
   3093 ****       -12.0000  16.2500  71.2500 Du        
   3094 ****       -12.0000  16.2500  71.5000 Du        
   3095 ****       -12.0000  16.2500  71.7500 Du        
   3096 ****       -12.0000  16.2500  72.0000 Du        
   3097 ****       -12.0000  16.2500  72.2500 Du        
   3098 ****       -12.0000  16.2500  72.5000 Du        
   3099 ****       -12.0000  16.2500  72.7500 Du        
   3100 ****       -12.0000  16.2500  73.0000 Du        
   3101 ****       -12.0000  16.2500  73.2500 Du        
   3102 ****       -12.0000  16.5000  72.2500 Du        
   3103 ****       -12.0000  16.5000  72.5000 Du        
   3104 ****       -12.0000  16.5000  72.7500 Du        
   3105 ****       -11.7500   6.0000  72.7500 Du        
   3106 ****       -11.7500   6.2500  72.2500 Du        
   3107 ****       -11.7500   6.2500  72.5000 Du        
   3108 ****       -11.7500   6.2500  72.7500 Du        
   3109 ****       -11.7500   6.5000  71.7500 Du        
   3110 ****       -11.7500   6.5000  72.0000 Du        
   3111 ****       -11.7500   6.5000  72.2500 Du        
   3112 ****       -11.7500   6.5000  72.5000 Du        
   3113 ****       -11.7500   6.5000  72.7500 Du        
   3114 ****       -11.7500   6.7500  70.7500 Du        
   3115 ****       -11.7500   6.7500  71.0000 Du        
   3116 ****       -11.7500   6.7500  71.2500 Du        
   3117 ****       -11.7500   6.7500  71.5000 Du        
   3118 ****       -11.7500   6.7500  71.7500 Du        
   3119 ****       -11.7500   6.7500  72.0000 Du        
   3120 ****       -11.7500   6.7500  72.2500 Du        
   3121 ****       -11.7500   6.7500  72.5000 Du        
   3122 ****       -11.7500   6.7500  72.7500 Du        
   3123 ****       -11.7500   7.0000  70.2500 Du        
   3124 ****       -11.7500   7.0000  70.5000 Du        
   3125 ****       -11.7500   7.0000  70.7500 Du        
   3126 ****       -11.7500   7.0000  71.0000 Du        
   3127 ****       -11.7500   7.0000  71.2500 Du        
   3128 ****       -11.7500   7.0000  71.5000 Du        
   3129 ****       -11.7500   7.0000  71.7500 Du        
   3130 ****       -11.7500   7.0000  72.0000 Du        
   3131 ****       -11.7500   7.0000  72.2500 Du        
   3132 ****       -11.7500   7.0000  72.5000 Du        
   3133 ****       -11.7500   7.0000  72.7500 Du        
   3134 ****       -11.7500   7.2500  70.5000 Du        
   3135 ****       -11.7500   7.2500  70.7500 Du        
   3136 ****       -11.7500   7.2500  71.0000 Du        
   3137 ****       -11.7500   7.2500  71.2500 Du        
   3138 ****       -11.7500   7.2500  71.5000 Du        
   3139 ****       -11.7500   7.2500  71.7500 Du        
   3140 ****       -11.7500   7.2500  72.0000 Du        
   3141 ****       -11.7500   7.2500  72.2500 Du        
   3142 ****       -11.7500   7.2500  72.5000 Du        
   3143 ****       -11.7500   7.2500  72.7500 Du        
   3144 ****       -11.7500   7.2500  73.0000 Du        
   3145 ****       -11.7500   7.5000  70.2500 Du        
   3146 ****       -11.7500   7.5000  70.5000 Du        
   3147 ****       -11.7500   7.5000  70.7500 Du        
   3148 ****       -11.7500   7.5000  71.0000 Du        
   3149 ****       -11.7500   7.5000  71.2500 Du        
   3150 ****       -11.7500   7.5000  71.5000 Du        
   3151 ****       -11.7500   7.5000  71.7500 Du        
   3152 ****       -11.7500   7.5000  72.0000 Du        
   3153 ****       -11.7500   7.5000  72.2500 Du        
   3154 ****       -11.7500   7.5000  72.5000 Du        
   3155 ****       -11.7500   7.5000  72.7500 Du        
   3156 ****       -11.7500   7.7500  70.2500 Du        
   3157 ****       -11.7500   7.7500  70.5000 Du        
   3158 ****       -11.7500   7.7500  70.7500 Du        
   3159 ****       -11.7500   7.7500  71.0000 Du        
   3160 ****       -11.7500   7.7500  71.2500 Du        
   3161 ****       -11.7500   7.7500  71.5000 Du        
   3162 ****       -11.7500   7.7500  71.7500 Du        
   3163 ****       -11.7500   7.7500  72.0000 Du        
   3164 ****       -11.7500   7.7500  72.2500 Du        
   3165 ****       -11.7500   7.7500  72.5000 Du        
   3166 ****       -11.7500   7.7500  72.7500 Du        
   3167 ****       -11.7500   8.0000  70.5000 Du        
   3168 ****       -11.7500   8.0000  70.7500 Du        
   3169 ****       -11.7500   8.0000  71.0000 Du        
   3170 ****       -11.7500   8.0000  71.2500 Du        
   3171 ****       -11.7500   8.0000  71.5000 Du        
   3172 ****       -11.7500   8.0000  71.7500 Du        
   3173 ****       -11.7500   8.0000  72.0000 Du        
   3174 ****       -11.7500   8.0000  72.2500 Du        
   3175 ****       -11.7500   8.0000  72.5000 Du        
   3176 ****       -11.7500   8.2500  70.5000 Du        
   3177 ****       -11.7500   8.2500  70.7500 Du        
   3178 ****       -11.7500   8.2500  71.0000 Du        
   3179 ****       -11.7500   8.2500  71.2500 Du        
   3180 ****       -11.7500   8.2500  71.5000 Du        
   3181 ****       -11.7500   8.2500  71.7500 Du        
   3182 ****       -11.7500   8.2500  72.0000 Du        
   3183 ****       -11.7500   8.2500  72.2500 Du        
   3184 ****       -11.7500   8.5000  70.2500 Du        
   3185 ****       -11.7500   8.5000  70.5000 Du        
   3186 ****       -11.7500   8.5000  70.7500 Du        
   3187 ****       -11.7500   8.5000  71.0000 Du        
   3188 ****       -11.7500   8.5000  71.2500 Du        
   3189 ****       -11.7500   8.5000  71.5000 Du        
   3190 ****       -11.7500   8.5000  71.7500 Du        
   3191 ****       -11.7500   8.5000  72.0000 Du        
   3192 ****       -11.7500   8.7500  70.2500 Du        
   3193 ****       -11.7500   8.7500  70.5000 Du        
   3194 ****       -11.7500   8.7500  70.7500 Du        
   3195 ****       -11.7500   8.7500  71.0000 Du        
   3196 ****       -11.7500   8.7500  71.2500 Du        
   3197 ****       -11.7500   8.7500  71.5000 Du        
   3198 ****       -11.7500   8.7500  71.7500 Du        
   3199 ****       -11.7500   9.0000  70.2500 Du        
   3200 ****       -11.7500   9.0000  70.5000 Du        
   3201 ****       -11.7500   9.0000  70.7500 Du        
   3202 ****       -11.7500   9.0000  71.0000 Du        
   3203 ****       -11.7500   9.0000  71.2500 Du        
   3204 ****       -11.7500   9.0000  71.5000 Du        
   3205 ****       -11.7500   9.0000  71.7500 Du        
   3206 ****       -11.7500   9.2500  70.0000 Du        
   3207 ****       -11.7500   9.2500  70.2500 Du        
   3208 ****       -11.7500   9.2500  70.5000 Du        
   3209 ****       -11.7500   9.2500  70.7500 Du        
   3210 ****       -11.7500   9.2500  71.0000 Du        
   3211 ****       -11.7500   9.2500  71.2500 Du        
   3212 ****       -11.7500   9.2500  71.5000 Du        
   3213 ****       -11.7500   9.5000  70.0000 Du        
   3214 ****       -11.7500   9.5000  70.2500 Du        
   3215 ****       -11.7500   9.5000  70.5000 Du        
   3216 ****       -11.7500   9.5000  70.7500 Du        
   3217 ****       -11.7500   9.5000  71.0000 Du        
   3218 ****       -11.7500   9.5000  71.2500 Du        
   3219 ****       -11.7500   9.7500  70.0000 Du        
   3220 ****       -11.7500   9.7500  70.2500 Du        
   3221 ****       -11.7500   9.7500  70.5000 Du        
   3222 ****       -11.7500   9.7500  70.7500 Du        
   3223 ****       -11.7500   9.7500  71.0000 Du        
   3224 ****       -11.7500  10.0000  69.7500 Du        
   3225 ****       -11.7500  10.0000  70.0000 Du        
   3226 ****       -11.7500  10.0000  70.2500 Du        
   3227 ****       -11.7500  10.0000  70.5000 Du        
   3228 ****       -11.7500  10.0000  70.7500 Du        
   3229 ****       -11.7500  10.0000  71.0000 Du        
   3230 ****       -11.7500  10.2500  69.7500 Du        
   3231 ****       -11.7500  10.2500  70.0000 Du        
   3232 ****       -11.7500  10.2500  70.2500 Du        
   3233 ****       -11.7500  10.2500  70.5000 Du        
   3234 ****       -11.7500  10.2500  70.7500 Du        
   3235 ****       -11.7500  10.5000  70.0000 Du        
   3236 ****       -11.7500  10.5000  70.2500 Du        
   3237 ****       -11.7500  10.5000  70.5000 Du        
   3238 ****       -11.7500  10.7500  69.7500 Du        
   3239 ****       -11.7500  10.7500  70.0000 Du        
   3240 ****       -11.7500  10.7500  70.2500 Du        
   3241 ****       -11.7500  11.0000  69.7500 Du        
   3242 ****       -11.7500  11.0000  70.0000 Du        
   3243 ****       -11.7500  11.5000  63.0000 Du        
   3244 ****       -11.7500  11.5000  63.2500 Du        
   3245 ****       -11.7500  11.5000  63.5000 Du        
   3246 ****       -11.7500  11.5000  63.7500 Du        
   3247 ****       -11.7500  11.7500  63.0000 Du        
   3248 ****       -11.7500  11.7500  63.2500 Du        
   3249 ****       -11.7500  11.7500  63.5000 Du        
   3250 ****       -11.7500  11.7500  63.7500 Du        
   3251 ****       -11.7500  11.7500  64.0000 Du        
   3252 ****       -11.7500  11.7500  64.2500 Du        
   3253 ****       -11.7500  12.0000  63.0000 Du        
   3254 ****       -11.7500  12.0000  63.2500 Du        
   3255 ****       -11.7500  12.0000  63.5000 Du        
   3256 ****       -11.7500  12.0000  63.7500 Du        
   3257 ****       -11.7500  12.0000  64.0000 Du        
   3258 ****       -11.7500  12.0000  64.2500 Du        
   3259 ****       -11.7500  12.0000  64.5000 Du        
   3260 ****       -11.7500  12.0000  64.7500 Du        
   3261 ****       -11.7500  12.0000  65.0000 Du        
   3262 ****       -11.7500  12.0000  65.2500 Du        
   3263 ****       -11.7500  12.2500  63.0000 Du        
   3264 ****       -11.7500  12.2500  63.2500 Du        
   3265 ****       -11.7500  12.2500  63.5000 Du        
   3266 ****       -11.7500  12.2500  63.7500 Du        
   3267 ****       -11.7500  12.2500  64.0000 Du        
   3268 ****       -11.7500  12.2500  64.2500 Du        
   3269 ****       -11.7500  12.2500  64.5000 Du        
   3270 ****       -11.7500  12.2500  64.7500 Du        
   3271 ****       -11.7500  12.2500  65.0000 Du        
   3272 ****       -11.7500  12.2500  65.2500 Du        
   3273 ****       -11.7500  12.2500  65.5000 Du        
   3274 ****       -11.7500  12.2500  65.7500 Du        
   3275 ****       -11.7500  12.5000  62.7500 Du        
   3276 ****       -11.7500  12.5000  63.0000 Du        
   3277 ****       -11.7500  12.5000  63.2500 Du        
   3278 ****       -11.7500  12.5000  63.5000 Du        
   3279 ****       -11.7500  12.5000  63.7500 Du        
   3280 ****       -11.7500  12.5000  64.0000 Du        
   3281 ****       -11.7500  12.5000  64.2500 Du        
   3282 ****       -11.7500  12.5000  64.5000 Du        
   3283 ****       -11.7500  12.5000  64.7500 Du        
   3284 ****       -11.7500  12.5000  65.0000 Du        
   3285 ****       -11.7500  12.5000  65.2500 Du        
   3286 ****       -11.7500  12.5000  65.5000 Du        
   3287 ****       -11.7500  12.5000  65.7500 Du        
   3288 ****       -11.7500  12.5000  66.0000 Du        
   3289 ****       -11.7500  12.7500  63.0000 Du        
   3290 ****       -11.7500  12.7500  63.2500 Du        
   3291 ****       -11.7500  12.7500  63.5000 Du        
   3292 ****       -11.7500  12.7500  63.7500 Du        
   3293 ****       -11.7500  12.7500  64.0000 Du        
   3294 ****       -11.7500  12.7500  64.2500 Du        
   3295 ****       -11.7500  12.7500  64.5000 Du        
   3296 ****       -11.7500  12.7500  64.7500 Du        
   3297 ****       -11.7500  12.7500  65.0000 Du        
   3298 ****       -11.7500  12.7500  65.2500 Du        
   3299 ****       -11.7500  12.7500  65.5000 Du        
   3300 ****       -11.7500  12.7500  65.7500 Du        
   3301 ****       -11.7500  12.7500  66.0000 Du        
   3302 ****       -11.7500  12.7500  66.2500 Du        
   3303 ****       -11.7500  13.0000  63.0000 Du        
   3304 ****       -11.7500  13.0000  63.2500 Du        
   3305 ****       -11.7500  13.0000  63.5000 Du        
   3306 ****       -11.7500  13.0000  63.7500 Du        
   3307 ****       -11.7500  13.0000  64.0000 Du        
   3308 ****       -11.7500  13.0000  64.2500 Du        
   3309 ****       -11.7500  13.0000  64.5000 Du        
   3310 ****       -11.7500  13.0000  64.7500 Du        
   3311 ****       -11.7500  13.0000  65.0000 Du        
   3312 ****       -11.7500  13.0000  65.2500 Du        
   3313 ****       -11.7500  13.0000  65.5000 Du        
   3314 ****       -11.7500  13.0000  65.7500 Du        
   3315 ****       -11.7500  13.0000  66.0000 Du        
   3316 ****       -11.7500  13.0000  66.2500 Du        
   3317 ****       -11.7500  13.2500  63.0000 Du        
   3318 ****       -11.7500  13.2500  63.2500 Du        
   3319 ****       -11.7500  13.2500  63.5000 Du        
   3320 ****       -11.7500  13.2500  63.7500 Du        
   3321 ****       -11.7500  13.2500  64.0000 Du        
   3322 ****       -11.7500  13.2500  64.2500 Du        
   3323 ****       -11.7500  13.2500  64.5000 Du        
   3324 ****       -11.7500  13.2500  64.7500 Du        
   3325 ****       -11.7500  13.2500  65.0000 Du        
   3326 ****       -11.7500  13.2500  65.2500 Du        
   3327 ****       -11.7500  13.2500  65.5000 Du        
   3328 ****       -11.7500  13.2500  65.7500 Du        
   3329 ****       -11.7500  13.2500  66.0000 Du        
   3330 ****       -11.7500  13.2500  66.2500 Du        
   3331 ****       -11.7500  13.2500  69.2500 Du        
   3332 ****       -11.7500  13.2500  69.5000 Du        
   3333 ****       -11.7500  13.2500  69.7500 Du        
   3334 ****       -11.7500  13.5000  63.2500 Du        
   3335 ****       -11.7500  13.5000  63.5000 Du        
   3336 ****       -11.7500  13.5000  63.7500 Du        
   3337 ****       -11.7500  13.5000  64.0000 Du        
   3338 ****       -11.7500  13.5000  64.2500 Du        
   3339 ****       -11.7500  13.5000  64.5000 Du        
   3340 ****       -11.7500  13.5000  64.7500 Du        
   3341 ****       -11.7500  13.5000  65.0000 Du        
   3342 ****       -11.7500  13.5000  65.2500 Du        
   3343 ****       -11.7500  13.5000  65.5000 Du        
   3344 ****       -11.7500  13.5000  65.7500 Du        
   3345 ****       -11.7500  13.5000  66.0000 Du        
   3346 ****       -11.7500  13.5000  66.2500 Du        
   3347 ****       -11.7500  13.5000  69.5000 Du        
   3348 ****       -11.7500  13.5000  69.7500 Du        
   3349 ****       -11.7500  13.5000  70.0000 Du        
   3350 ****       -11.7500  13.5000  70.2500 Du        
   3351 ****       -11.7500  13.5000  70.5000 Du        
   3352 ****       -11.7500  13.7500  63.5000 Du        
   3353 ****       -11.7500  13.7500  63.7500 Du        
   3354 ****       -11.7500  13.7500  64.0000 Du        
   3355 ****       -11.7500  13.7500  64.2500 Du        
   3356 ****       -11.7500  13.7500  64.5000 Du        
   3357 ****       -11.7500  13.7500  64.7500 Du        
   3358 ****       -11.7500  13.7500  65.0000 Du        
   3359 ****       -11.7500  13.7500  65.2500 Du        
   3360 ****       -11.7500  13.7500  65.5000 Du        
   3361 ****       -11.7500  13.7500  65.7500 Du        
   3362 ****       -11.7500  13.7500  66.0000 Du        
   3363 ****       -11.7500  13.7500  66.2500 Du        
   3364 ****       -11.7500  13.7500  69.0000 Du        
   3365 ****       -11.7500  13.7500  69.2500 Du        
   3366 ****       -11.7500  13.7500  69.5000 Du        
   3367 ****       -11.7500  13.7500  69.7500 Du        
   3368 ****       -11.7500  13.7500  70.0000 Du        
   3369 ****       -11.7500  13.7500  70.2500 Du        
   3370 ****       -11.7500  13.7500  70.5000 Du        
   3371 ****       -11.7500  13.7500  70.7500 Du        
   3372 ****       -11.7500  14.0000  63.5000 Du        
   3373 ****       -11.7500  14.0000  63.7500 Du        
   3374 ****       -11.7500  14.0000  64.0000 Du        
   3375 ****       -11.7500  14.0000  64.2500 Du        
   3376 ****       -11.7500  14.0000  64.5000 Du        
   3377 ****       -11.7500  14.0000  64.7500 Du        
   3378 ****       -11.7500  14.0000  65.0000 Du        
   3379 ****       -11.7500  14.0000  65.2500 Du        
   3380 ****       -11.7500  14.0000  65.5000 Du        
   3381 ****       -11.7500  14.0000  65.7500 Du        
   3382 ****       -11.7500  14.0000  66.0000 Du        
   3383 ****       -11.7500  14.0000  66.2500 Du        
   3384 ****       -11.7500  14.0000  68.7500 Du        
   3385 ****       -11.7500  14.0000  69.0000 Du        
   3386 ****       -11.7500  14.0000  69.2500 Du        
   3387 ****       -11.7500  14.0000  69.5000 Du        
   3388 ****       -11.7500  14.0000  69.7500 Du        
   3389 ****       -11.7500  14.0000  70.0000 Du        
   3390 ****       -11.7500  14.0000  70.2500 Du        
   3391 ****       -11.7500  14.0000  70.5000 Du        
   3392 ****       -11.7500  14.0000  70.7500 Du        
   3393 ****       -11.7500  14.0000  71.0000 Du        
   3394 ****       -11.7500  14.2500  63.7500 Du        
   3395 ****       -11.7500  14.2500  64.0000 Du        
   3396 ****       -11.7500  14.2500  64.2500 Du        
   3397 ****       -11.7500  14.2500  64.5000 Du        
   3398 ****       -11.7500  14.2500  64.7500 Du        
   3399 ****       -11.7500  14.2500  65.0000 Du        
   3400 ****       -11.7500  14.2500  65.2500 Du        
   3401 ****       -11.7500  14.2500  65.5000 Du        
   3402 ****       -11.7500  14.2500  65.7500 Du        
   3403 ****       -11.7500  14.2500  66.0000 Du        
   3404 ****       -11.7500  14.2500  66.2500 Du        
   3405 ****       -11.7500  14.2500  68.5000 Du        
   3406 ****       -11.7500  14.2500  68.7500 Du        
   3407 ****       -11.7500  14.2500  69.0000 Du        
   3408 ****       -11.7500  14.2500  69.2500 Du        
   3409 ****       -11.7500  14.2500  69.5000 Du        
   3410 ****       -11.7500  14.2500  69.7500 Du        
   3411 ****       -11.7500  14.2500  70.0000 Du        
   3412 ****       -11.7500  14.2500  70.2500 Du        
   3413 ****       -11.7500  14.2500  70.5000 Du        
   3414 ****       -11.7500  14.2500  70.7500 Du        
   3415 ****       -11.7500  14.2500  71.0000 Du        
   3416 ****       -11.7500  14.2500  71.2500 Du        
   3417 ****       -11.7500  14.2500  71.5000 Du        
   3418 ****       -11.7500  14.5000  63.7500 Du        
   3419 ****       -11.7500  14.5000  64.0000 Du        
   3420 ****       -11.7500  14.5000  64.2500 Du        
   3421 ****       -11.7500  14.5000  64.5000 Du        
   3422 ****       -11.7500  14.5000  64.7500 Du        
   3423 ****       -11.7500  14.5000  65.0000 Du        
   3424 ****       -11.7500  14.5000  65.2500 Du        
   3425 ****       -11.7500  14.5000  65.5000 Du        
   3426 ****       -11.7500  14.5000  68.2500 Du        
   3427 ****       -11.7500  14.5000  68.5000 Du        
   3428 ****       -11.7500  14.5000  68.7500 Du        
   3429 ****       -11.7500  14.5000  69.0000 Du        
   3430 ****       -11.7500  14.5000  69.2500 Du        
   3431 ****       -11.7500  14.5000  69.5000 Du        
   3432 ****       -11.7500  14.5000  69.7500 Du        
   3433 ****       -11.7500  14.5000  70.0000 Du        
   3434 ****       -11.7500  14.5000  70.2500 Du        
   3435 ****       -11.7500  14.5000  70.5000 Du        
   3436 ****       -11.7500  14.5000  70.7500 Du        
   3437 ****       -11.7500  14.5000  71.0000 Du        
   3438 ****       -11.7500  14.5000  71.2500 Du        
   3439 ****       -11.7500  14.5000  71.5000 Du        
   3440 ****       -11.7500  14.5000  71.7500 Du        
   3441 ****       -11.7500  14.7500  64.0000 Du        
   3442 ****       -11.7500  14.7500  64.2500 Du        
   3443 ****       -11.7500  14.7500  64.5000 Du        
   3444 ****       -11.7500  14.7500  64.7500 Du        
   3445 ****       -11.7500  14.7500  68.2500 Du        
   3446 ****       -11.7500  14.7500  68.5000 Du        
   3447 ****       -11.7500  14.7500  68.7500 Du        
   3448 ****       -11.7500  14.7500  69.0000 Du        
   3449 ****       -11.7500  14.7500  69.2500 Du        
   3450 ****       -11.7500  14.7500  69.5000 Du        
   3451 ****       -11.7500  14.7500  69.7500 Du        
   3452 ****       -11.7500  14.7500  70.0000 Du        
   3453 ****       -11.7500  14.7500  70.2500 Du        
   3454 ****       -11.7500  14.7500  70.5000 Du        
   3455 ****       -11.7500  14.7500  70.7500 Du        
   3456 ****       -11.7500  14.7500  71.0000 Du        
   3457 ****       -11.7500  14.7500  71.2500 Du        
   3458 ****       -11.7500  14.7500  71.5000 Du        
   3459 ****       -11.7500  14.7500  71.7500 Du        
   3460 ****       -11.7500  14.7500  72.0000 Du        
   3461 ****       -11.7500  14.7500  72.2500 Du        
   3462 ****       -11.7500  15.0000  64.0000 Du        
   3463 ****       -11.7500  15.0000  64.2500 Du        
   3464 ****       -11.7500  15.0000  68.2500 Du        
   3465 ****       -11.7500  15.0000  68.5000 Du        
   3466 ****       -11.7500  15.0000  68.7500 Du        
   3467 ****       -11.7500  15.0000  69.0000 Du        
   3468 ****       -11.7500  15.0000  69.2500 Du        
   3469 ****       -11.7500  15.0000  69.5000 Du        
   3470 ****       -11.7500  15.0000  69.7500 Du        
   3471 ****       -11.7500  15.0000  70.0000 Du        
   3472 ****       -11.7500  15.0000  70.2500 Du        
   3473 ****       -11.7500  15.0000  70.5000 Du        
   3474 ****       -11.7500  15.0000  70.7500 Du        
   3475 ****       -11.7500  15.0000  71.0000 Du        
   3476 ****       -11.7500  15.0000  71.2500 Du        
   3477 ****       -11.7500  15.0000  71.5000 Du        
   3478 ****       -11.7500  15.0000  71.7500 Du        
   3479 ****       -11.7500  15.0000  72.0000 Du        
   3480 ****       -11.7500  15.0000  72.2500 Du        
   3481 ****       -11.7500  15.0000  72.5000 Du        
   3482 ****       -11.7500  15.0000  72.7500 Du        
   3483 ****       -11.7500  15.2500  68.2500 Du        
   3484 ****       -11.7500  15.2500  68.5000 Du        
   3485 ****       -11.7500  15.2500  68.7500 Du        
   3486 ****       -11.7500  15.2500  69.0000 Du        
   3487 ****       -11.7500  15.2500  69.2500 Du        
   3488 ****       -11.7500  15.2500  69.5000 Du        
   3489 ****       -11.7500  15.2500  69.7500 Du        
   3490 ****       -11.7500  15.2500  70.0000 Du        
   3491 ****       -11.7500  15.2500  70.2500 Du        
   3492 ****       -11.7500  15.2500  70.5000 Du        
   3493 ****       -11.7500  15.2500  70.7500 Du        
   3494 ****       -11.7500  15.2500  71.0000 Du        
   3495 ****       -11.7500  15.2500  71.2500 Du        
   3496 ****       -11.7500  15.2500  71.5000 Du        
   3497 ****       -11.7500  15.2500  71.7500 Du        
   3498 ****       -11.7500  15.2500  72.0000 Du        
   3499 ****       -11.7500  15.2500  72.2500 Du        
   3500 ****       -11.7500  15.2500  72.5000 Du        
   3501 ****       -11.7500  15.2500  72.7500 Du        
   3502 ****       -11.7500  15.2500  73.0000 Du        
   3503 ****       -11.7500  15.5000  68.5000 Du        
   3504 ****       -11.7500  15.5000  68.7500 Du        
   3505 ****       -11.7500  15.5000  69.0000 Du        
   3506 ****       -11.7500  15.5000  69.2500 Du        
   3507 ****       -11.7500  15.5000  69.5000 Du        
   3508 ****       -11.7500  15.5000  69.7500 Du        
   3509 ****       -11.7500  15.5000  70.0000 Du        
   3510 ****       -11.7500  15.5000  70.2500 Du        
   3511 ****       -11.7500  15.5000  70.5000 Du        
   3512 ****       -11.7500  15.5000  70.7500 Du        
   3513 ****       -11.7500  15.5000  71.0000 Du        
   3514 ****       -11.7500  15.5000  71.2500 Du        
   3515 ****       -11.7500  15.5000  71.5000 Du        
   3516 ****       -11.7500  15.5000  71.7500 Du        
   3517 ****       -11.7500  15.5000  72.0000 Du        
   3518 ****       -11.7500  15.5000  72.2500 Du        
   3519 ****       -11.7500  15.5000  72.5000 Du        
   3520 ****       -11.7500  15.5000  72.7500 Du        
   3521 ****       -11.7500  15.5000  73.0000 Du        
   3522 ****       -11.7500  15.7500  68.5000 Du        
   3523 ****       -11.7500  15.7500  68.7500 Du        
   3524 ****       -11.7500  15.7500  69.0000 Du        
   3525 ****       -11.7500  15.7500  69.2500 Du        
   3526 ****       -11.7500  15.7500  69.5000 Du        
   3527 ****       -11.7500  15.7500  69.7500 Du        
   3528 ****       -11.7500  15.7500  70.0000 Du        
   3529 ****       -11.7500  15.7500  70.2500 Du        
   3530 ****       -11.7500  15.7500  70.5000 Du        
   3531 ****       -11.7500  15.7500  70.7500 Du        
   3532 ****       -11.7500  15.7500  71.0000 Du        
   3533 ****       -11.7500  15.7500  71.2500 Du        
   3534 ****       -11.7500  15.7500  71.5000 Du        
   3535 ****       -11.7500  15.7500  71.7500 Du        
   3536 ****       -11.7500  15.7500  72.0000 Du        
   3537 ****       -11.7500  15.7500  72.2500 Du        
   3538 ****       -11.7500  15.7500  72.5000 Du        
   3539 ****       -11.7500  15.7500  72.7500 Du        
   3540 ****       -11.7500  15.7500  73.0000 Du        
   3541 ****       -11.7500  16.0000  68.7500 Du        
   3542 ****       -11.7500  16.0000  69.0000 Du        
   3543 ****       -11.7500  16.0000  69.2500 Du        
   3544 ****       -11.7500  16.0000  69.5000 Du        
   3545 ****       -11.7500  16.0000  69.7500 Du        
   3546 ****       -11.7500  16.0000  70.0000 Du        
   3547 ****       -11.7500  16.0000  70.2500 Du        
   3548 ****       -11.7500  16.0000  70.5000 Du        
   3549 ****       -11.7500  16.0000  70.7500 Du        
   3550 ****       -11.7500  16.0000  71.0000 Du        
   3551 ****       -11.7500  16.0000  71.2500 Du        
   3552 ****       -11.7500  16.0000  71.5000 Du        
   3553 ****       -11.7500  16.0000  71.7500 Du        
   3554 ****       -11.7500  16.0000  72.0000 Du        
   3555 ****       -11.7500  16.0000  72.2500 Du        
   3556 ****       -11.7500  16.0000  72.5000 Du        
   3557 ****       -11.7500  16.0000  72.7500 Du        
   3558 ****       -11.7500  16.2500  69.2500 Du        
   3559 ****       -11.7500  16.2500  69.5000 Du        
   3560 ****       -11.7500  16.2500  69.7500 Du        
   3561 ****       -11.7500  16.2500  70.0000 Du        
   3562 ****       -11.7500  16.2500  70.2500 Du        
   3563 ****       -11.7500  16.2500  70.5000 Du        
   3564 ****       -11.7500  16.2500  70.7500 Du        
   3565 ****       -11.7500  16.2500  71.0000 Du        
   3566 ****       -11.7500  16.2500  71.2500 Du        
   3567 ****       -11.7500  16.2500  71.5000 Du        
   3568 ****       -11.7500  16.2500  71.7500 Du        
   3569 ****       -11.7500  16.2500  72.0000 Du        
   3570 ****       -11.7500  16.2500  72.2500 Du        
   3571 ****       -11.7500  16.2500  72.5000 Du        
   3572 ****       -11.5000   6.2500  72.5000 Du        
   3573 ****       -11.5000   6.2500  72.7500 Du        
   3574 ****       -11.5000   6.5000  72.0000 Du        
   3575 ****       -11.5000   6.5000  72.2500 Du        
   3576 ****       -11.5000   6.5000  72.5000 Du        
   3577 ****       -11.5000   6.5000  72.7500 Du        
   3578 ****       -11.5000   6.7500  71.5000 Du        
   3579 ****       -11.5000   6.7500  71.7500 Du        
   3580 ****       -11.5000   6.7500  72.0000 Du        
   3581 ****       -11.5000   6.7500  72.2500 Du        
   3582 ****       -11.5000   6.7500  72.5000 Du        
   3583 ****       -11.5000   6.7500  72.7500 Du        
   3584 ****       -11.5000   6.7500  73.0000 Du        
   3585 ****       -11.5000   7.0000  71.2500 Du        
   3586 ****       -11.5000   7.0000  71.5000 Du        
   3587 ****       -11.5000   7.0000  71.7500 Du        
   3588 ****       -11.5000   7.0000  72.0000 Du        
   3589 ****       -11.5000   7.0000  72.2500 Du        
   3590 ****       -11.5000   7.0000  72.5000 Du        
   3591 ****       -11.5000   7.0000  72.7500 Du        
   3592 ****       -11.5000   7.0000  73.0000 Du        
   3593 ****       -11.5000   7.2500  71.0000 Du        
   3594 ****       -11.5000   7.2500  71.2500 Du        
   3595 ****       -11.5000   7.2500  71.5000 Du        
   3596 ****       -11.5000   7.2500  71.7500 Du        
   3597 ****       -11.5000   7.2500  72.0000 Du        
   3598 ****       -11.5000   7.2500  72.2500 Du        
   3599 ****       -11.5000   7.2500  72.5000 Du        
   3600 ****       -11.5000   7.2500  72.7500 Du        
   3601 ****       -11.5000   7.2500  73.0000 Du        
   3602 ****       -11.5000   7.5000  70.7500 Du        
   3603 ****       -11.5000   7.5000  71.0000 Du        
   3604 ****       -11.5000   7.5000  71.2500 Du        
   3605 ****       -11.5000   7.5000  71.5000 Du        
   3606 ****       -11.5000   7.5000  71.7500 Du        
   3607 ****       -11.5000   7.5000  72.0000 Du        
   3608 ****       -11.5000   7.5000  72.2500 Du        
   3609 ****       -11.5000   7.5000  72.5000 Du        
   3610 ****       -11.5000   7.5000  72.7500 Du        
   3611 ****       -11.5000   7.7500  70.7500 Du        
   3612 ****       -11.5000   7.7500  71.0000 Du        
   3613 ****       -11.5000   7.7500  71.2500 Du        
   3614 ****       -11.5000   7.7500  71.5000 Du        
   3615 ****       -11.5000   7.7500  71.7500 Du        
   3616 ****       -11.5000   7.7500  72.0000 Du        
   3617 ****       -11.5000   7.7500  72.2500 Du        
   3618 ****       -11.5000   7.7500  72.5000 Du        
   3619 ****       -11.5000   8.0000  70.7500 Du        
   3620 ****       -11.5000   8.0000  71.0000 Du        
   3621 ****       -11.5000   8.0000  71.2500 Du        
   3622 ****       -11.5000   8.0000  71.5000 Du        
   3623 ****       -11.5000   8.0000  71.7500 Du        
   3624 ****       -11.5000   8.0000  72.0000 Du        
   3625 ****       -11.5000   8.0000  72.2500 Du        
   3626 ****       -11.5000   8.2500  70.7500 Du        
   3627 ****       -11.5000   8.2500  71.0000 Du        
   3628 ****       -11.5000   8.2500  71.2500 Du        
   3629 ****       -11.5000   8.2500  71.5000 Du        
   3630 ****       -11.5000   8.2500  71.7500 Du        
   3631 ****       -11.5000   8.2500  72.0000 Du        
   3632 ****       -11.5000   8.5000  70.7500 Du        
   3633 ****       -11.5000   8.5000  71.0000 Du        
   3634 ****       -11.5000   8.5000  71.2500 Du        
   3635 ****       -11.5000   8.5000  71.5000 Du        
   3636 ****       -11.5000   8.5000  71.7500 Du        
   3637 ****       -11.5000   8.7500  70.2500 Du        
   3638 ****       -11.5000   8.7500  70.7500 Du        
   3639 ****       -11.5000   8.7500  71.0000 Du        
   3640 ****       -11.5000   8.7500  71.2500 Du        
   3641 ****       -11.5000   8.7500  71.5000 Du        
   3642 ****       -11.5000   9.0000  70.2500 Du        
   3643 ****       -11.5000   9.0000  70.5000 Du        
   3644 ****       -11.5000   9.0000  70.7500 Du        
   3645 ****       -11.5000   9.0000  71.0000 Du        
   3646 ****       -11.5000   9.0000  71.2500 Du        
   3647 ****       -11.5000   9.2500  70.0000 Du        
   3648 ****       -11.5000   9.2500  70.2500 Du        
   3649 ****       -11.5000   9.2500  70.5000 Du        
   3650 ****       -11.5000   9.2500  70.7500 Du        
   3651 ****       -11.5000   9.2500  71.0000 Du        
   3652 ****       -11.5000   9.2500  71.2500 Du        
   3653 ****       -11.5000   9.5000  70.5000 Du        
   3654 ****       -11.5000   9.5000  70.7500 Du        
   3655 ****       -11.5000   9.5000  71.0000 Du        
   3656 ****       -11.5000   9.7500  70.2500 Du        
   3657 ****       -11.5000   9.7500  70.5000 Du        
   3658 ****       -11.5000   9.7500  70.7500 Du        
   3659 ****       -11.5000  10.0000  70.0000 Du        
   3660 ****       -11.5000  10.0000  70.2500 Du        
   3661 ****       -11.5000  10.0000  70.5000 Du        
   3662 ****       -11.5000  10.2500  70.0000 Du        
   3663 ****       -11.5000  10.2500  70.2500 Du        
   3664 ****       -11.5000  10.5000  70.0000 Du        
   3665 ****       -11.5000  11.2500  63.0000 Du        
   3666 ****       -11.5000  11.2500  63.2500 Du        
   3667 ****       -11.5000  11.5000  63.0000 Du        
   3668 ****       -11.5000  11.5000  63.2500 Du        
   3669 ****       -11.5000  11.5000  63.5000 Du        
   3670 ****       -11.5000  11.5000  63.7500 Du        
   3671 ****       -11.5000  11.5000  64.0000 Du        
   3672 ****       -11.5000  11.7500  63.0000 Du        
   3673 ****       -11.5000  11.7500  63.2500 Du        
   3674 ****       -11.5000  11.7500  63.5000 Du        
   3675 ****       -11.5000  11.7500  63.7500 Du        
   3676 ****       -11.5000  11.7500  64.0000 Du        
   3677 ****       -11.5000  11.7500  64.2500 Du        
   3678 ****       -11.5000  11.7500  64.5000 Du        
   3679 ****       -11.5000  11.7500  64.7500 Du        
   3680 ****       -11.5000  11.7500  65.0000 Du        
   3681 ****       -11.5000  12.0000  63.0000 Du        
   3682 ****       -11.5000  12.0000  63.2500 Du        
   3683 ****       -11.5000  12.0000  63.5000 Du        
   3684 ****       -11.5000  12.0000  63.7500 Du        
   3685 ****       -11.5000  12.0000  64.0000 Du        
   3686 ****       -11.5000  12.0000  64.2500 Du        
   3687 ****       -11.5000  12.0000  64.5000 Du        
   3688 ****       -11.5000  12.0000  64.7500 Du        
   3689 ****       -11.5000  12.0000  65.0000 Du        
   3690 ****       -11.5000  12.0000  65.2500 Du        
   3691 ****       -11.5000  12.0000  65.5000 Du        
   3692 ****       -11.5000  12.0000  65.7500 Du        
   3693 ****       -11.5000  12.2500  63.0000 Du        
   3694 ****       -11.5000  12.2500  63.2500 Du        
   3695 ****       -11.5000  12.2500  63.5000 Du        
   3696 ****       -11.5000  12.2500  63.7500 Du        
   3697 ****       -11.5000  12.2500  64.0000 Du        
   3698 ****       -11.5000  12.2500  64.2500 Du        
   3699 ****       -11.5000  12.2500  64.5000 Du        
   3700 ****       -11.5000  12.2500  64.7500 Du        
   3701 ****       -11.5000  12.2500  65.0000 Du        
   3702 ****       -11.5000  12.2500  65.2500 Du        
   3703 ****       -11.5000  12.2500  65.5000 Du        
   3704 ****       -11.5000  12.2500  65.7500 Du        
   3705 ****       -11.5000  12.2500  66.0000 Du        
   3706 ****       -11.5000  12.5000  63.0000 Du        
   3707 ****       -11.5000  12.5000  63.2500 Du        
   3708 ****       -11.5000  12.5000  63.5000 Du        
   3709 ****       -11.5000  12.5000  63.7500 Du        
   3710 ****       -11.5000  12.5000  64.0000 Du        
   3711 ****       -11.5000  12.5000  64.2500 Du        
   3712 ****       -11.5000  12.5000  64.5000 Du        
   3713 ****       -11.5000  12.5000  64.7500 Du        
   3714 ****       -11.5000  12.5000  65.0000 Du        
   3715 ****       -11.5000  12.5000  65.2500 Du        
   3716 ****       -11.5000  12.5000  65.5000 Du        
   3717 ****       -11.5000  12.5000  65.7500 Du        
   3718 ****       -11.5000  12.5000  66.0000 Du        
   3719 ****       -11.5000  12.5000  66.2500 Du        
   3720 ****       -11.5000  12.7500  63.0000 Du        
   3721 ****       -11.5000  12.7500  63.2500 Du        
   3722 ****       -11.5000  12.7500  63.5000 Du        
   3723 ****       -11.5000  12.7500  63.7500 Du        
   3724 ****       -11.5000  12.7500  64.0000 Du        
   3725 ****       -11.5000  12.7500  64.2500 Du        
   3726 ****       -11.5000  12.7500  64.5000 Du        
   3727 ****       -11.5000  12.7500  64.7500 Du        
   3728 ****       -11.5000  12.7500  65.0000 Du        
   3729 ****       -11.5000  12.7500  65.2500 Du        
   3730 ****       -11.5000  12.7500  65.5000 Du        
   3731 ****       -11.5000  12.7500  65.7500 Du        
   3732 ****       -11.5000  12.7500  66.0000 Du        
   3733 ****       -11.5000  12.7500  66.2500 Du        
   3734 ****       -11.5000  13.0000  63.0000 Du        
   3735 ****       -11.5000  13.0000  63.2500 Du        
   3736 ****       -11.5000  13.0000  63.5000 Du        
   3737 ****       -11.5000  13.0000  63.7500 Du        
   3738 ****       -11.5000  13.0000  64.0000 Du        
   3739 ****       -11.5000  13.0000  64.2500 Du        
   3740 ****       -11.5000  13.0000  64.5000 Du        
   3741 ****       -11.5000  13.0000  64.7500 Du        
   3742 ****       -11.5000  13.0000  65.0000 Du        
   3743 ****       -11.5000  13.0000  65.2500 Du        
   3744 ****       -11.5000  13.0000  65.5000 Du        
   3745 ****       -11.5000  13.0000  65.7500 Du        
   3746 ****       -11.5000  13.0000  66.0000 Du        
   3747 ****       -11.5000  13.0000  66.2500 Du        
   3748 ****       -11.5000  13.2500  63.2500 Du        
   3749 ****       -11.5000  13.2500  63.5000 Du        
   3750 ****       -11.5000  13.2500  63.7500 Du        
   3751 ****       -11.5000  13.2500  64.0000 Du        
   3752 ****       -11.5000  13.2500  64.2500 Du        
   3753 ****       -11.5000  13.2500  64.5000 Du        
   3754 ****       -11.5000  13.2500  64.7500 Du        
   3755 ****       -11.5000  13.2500  65.0000 Du        
   3756 ****       -11.5000  13.2500  65.2500 Du        
   3757 ****       -11.5000  13.2500  65.5000 Du        
   3758 ****       -11.5000  13.2500  65.7500 Du        
   3759 ****       -11.5000  13.2500  66.0000 Du        
   3760 ****       -11.5000  13.2500  66.2500 Du        
   3761 ****       -11.5000  13.5000  63.5000 Du        
   3762 ****       -11.5000  13.5000  63.7500 Du        
   3763 ****       -11.5000  13.5000  64.0000 Du        
   3764 ****       -11.5000  13.5000  64.2500 Du        
   3765 ****       -11.5000  13.5000  64.5000 Du        
   3766 ****       -11.5000  13.5000  64.7500 Du        
   3767 ****       -11.5000  13.5000  65.0000 Du        
   3768 ****       -11.5000  13.5000  65.2500 Du        
   3769 ****       -11.5000  13.5000  65.5000 Du        
   3770 ****       -11.5000  13.5000  65.7500 Du        
   3771 ****       -11.5000  13.5000  66.0000 Du        
   3772 ****       -11.5000  13.5000  66.2500 Du        
   3773 ****       -11.5000  13.5000  69.5000 Du        
   3774 ****       -11.5000  13.7500  63.5000 Du        
   3775 ****       -11.5000  13.7500  63.7500 Du        
   3776 ****       -11.5000  13.7500  64.0000 Du        
   3777 ****       -11.5000  13.7500  64.2500 Du        
   3778 ****       -11.5000  13.7500  64.5000 Du        
   3779 ****       -11.5000  13.7500  64.7500 Du        
   3780 ****       -11.5000  13.7500  65.0000 Du        
   3781 ****       -11.5000  13.7500  65.2500 Du        
   3782 ****       -11.5000  13.7500  65.5000 Du        
   3783 ****       -11.5000  13.7500  65.7500 Du        
   3784 ****       -11.5000  13.7500  66.0000 Du        
   3785 ****       -11.5000  13.7500  66.2500 Du        
   3786 ****       -11.5000  13.7500  69.5000 Du        
   3787 ****       -11.5000  13.7500  69.7500 Du        
   3788 ****       -11.5000  13.7500  70.0000 Du        
   3789 ****       -11.5000  14.0000  63.7500 Du        
   3790 ****       -11.5000  14.0000  64.0000 Du        
   3791 ****       -11.5000  14.0000  64.2500 Du        
   3792 ****       -11.5000  14.0000  64.5000 Du        
   3793 ****       -11.5000  14.0000  64.7500 Du        
   3794 ****       -11.5000  14.0000  65.0000 Du        
   3795 ****       -11.5000  14.0000  65.2500 Du        
   3796 ****       -11.5000  14.0000  65.5000 Du        
   3797 ****       -11.5000  14.0000  65.7500 Du        
   3798 ****       -11.5000  14.0000  66.0000 Du        
   3799 ****       -11.5000  14.0000  66.2500 Du        
   3800 ****       -11.5000  14.0000  69.5000 Du        
   3801 ****       -11.5000  14.0000  69.7500 Du        
   3802 ****       -11.5000  14.0000  70.0000 Du        
   3803 ****       -11.5000  14.0000  70.2500 Du        
   3804 ****       -11.5000  14.2500  64.0000 Du        
   3805 ****       -11.5000  14.2500  64.2500 Du        
   3806 ****       -11.5000  14.2500  64.5000 Du        
   3807 ****       -11.5000  14.2500  64.7500 Du        
   3808 ****       -11.5000  14.2500  65.0000 Du        
   3809 ****       -11.5000  14.2500  65.2500 Du        
   3810 ****       -11.5000  14.2500  65.5000 Du        
   3811 ****       -11.5000  14.2500  65.7500 Du        
   3812 ****       -11.5000  14.2500  66.0000 Du        
   3813 ****       -11.5000  14.2500  66.2500 Du        
   3814 ****       -11.5000  14.2500  69.5000 Du        
   3815 ****       -11.5000  14.2500  69.7500 Du        
   3816 ****       -11.5000  14.2500  70.0000 Du        
   3817 ****       -11.5000  14.2500  70.2500 Du        
   3818 ****       -11.5000  14.2500  70.5000 Du        
   3819 ****       -11.5000  14.2500  70.7500 Du        
   3820 ****       -11.5000  14.5000  64.0000 Du        
   3821 ****       -11.5000  14.5000  64.2500 Du        
   3822 ****       -11.5000  14.5000  64.5000 Du        
   3823 ****       -11.5000  14.5000  64.7500 Du        
   3824 ****       -11.5000  14.5000  65.0000 Du        
   3825 ****       -11.5000  14.5000  65.2500 Du        
   3826 ****       -11.5000  14.5000  65.5000 Du        
   3827 ****       -11.5000  14.5000  65.7500 Du        
   3828 ****       -11.5000  14.5000  69.2500 Du        
   3829 ****       -11.5000  14.5000  69.5000 Du        
   3830 ****       -11.5000  14.5000  69.7500 Du        
   3831 ****       -11.5000  14.5000  70.0000 Du        
   3832 ****       -11.5000  14.5000  70.2500 Du        
   3833 ****       -11.5000  14.5000  70.5000 Du        
   3834 ****       -11.5000  14.5000  70.7500 Du        
   3835 ****       -11.5000  14.5000  71.0000 Du        
   3836 ****       -11.5000  14.5000  71.2500 Du        
   3837 ****       -11.5000  14.7500  64.0000 Du        
   3838 ****       -11.5000  14.7500  64.2500 Du        
   3839 ****       -11.5000  14.7500  64.5000 Du        
   3840 ****       -11.5000  14.7500  64.7500 Du        
   3841 ****       -11.5000  14.7500  65.0000 Du        
   3842 ****       -11.5000  14.7500  68.5000 Du        
   3843 ****       -11.5000  14.7500  68.7500 Du        
   3844 ****       -11.5000  14.7500  69.0000 Du        
   3845 ****       -11.5000  14.7500  69.2500 Du        
   3846 ****       -11.5000  14.7500  69.5000 Du        
   3847 ****       -11.5000  14.7500  69.7500 Du        
   3848 ****       -11.5000  14.7500  70.0000 Du        
   3849 ****       -11.5000  14.7500  70.2500 Du        
   3850 ****       -11.5000  14.7500  70.5000 Du        
   3851 ****       -11.5000  14.7500  70.7500 Du        
   3852 ****       -11.5000  14.7500  71.0000 Du        
   3853 ****       -11.5000  14.7500  71.2500 Du        
   3854 ****       -11.5000  14.7500  71.5000 Du        
   3855 ****       -11.5000  14.7500  71.7500 Du        
   3856 ****       -11.5000  15.0000  64.2500 Du        
   3857 ****       -11.5000  15.0000  64.5000 Du        
   3858 ****       -11.5000  15.0000  68.2500 Du        
   3859 ****       -11.5000  15.0000  68.5000 Du        
   3860 ****       -11.5000  15.0000  68.7500 Du        
   3861 ****       -11.5000  15.0000  69.0000 Du        
   3862 ****       -11.5000  15.0000  69.2500 Du        
   3863 ****       -11.5000  15.0000  69.5000 Du        
   3864 ****       -11.5000  15.0000  69.7500 Du        
   3865 ****       -11.5000  15.0000  70.0000 Du        
   3866 ****       -11.5000  15.0000  70.2500 Du        
   3867 ****       -11.5000  15.0000  70.5000 Du        
   3868 ****       -11.5000  15.0000  70.7500 Du        
   3869 ****       -11.5000  15.0000  71.0000 Du        
   3870 ****       -11.5000  15.0000  71.2500 Du        
   3871 ****       -11.5000  15.0000  71.5000 Du        
   3872 ****       -11.5000  15.0000  71.7500 Du        
   3873 ****       -11.5000  15.0000  72.0000 Du        
   3874 ****       -11.5000  15.0000  72.2500 Du        
   3875 ****       -11.5000  15.2500  68.2500 Du        
   3876 ****       -11.5000  15.2500  68.5000 Du        
   3877 ****       -11.5000  15.2500  68.7500 Du        
   3878 ****       -11.5000  15.2500  69.0000 Du        
   3879 ****       -11.5000  15.2500  69.2500 Du        
   3880 ****       -11.5000  15.2500  69.5000 Du        
   3881 ****       -11.5000  15.2500  69.7500 Du        
   3882 ****       -11.5000  15.2500  70.0000 Du        
   3883 ****       -11.5000  15.2500  70.2500 Du        
   3884 ****       -11.5000  15.2500  70.5000 Du        
   3885 ****       -11.5000  15.2500  70.7500 Du        
   3886 ****       -11.5000  15.2500  71.0000 Du        
   3887 ****       -11.5000  15.2500  71.2500 Du        
   3888 ****       -11.5000  15.2500  71.5000 Du        
   3889 ****       -11.5000  15.2500  71.7500 Du        
   3890 ****       -11.5000  15.2500  72.0000 Du        
   3891 ****       -11.5000  15.2500  72.2500 Du        
   3892 ****       -11.5000  15.5000  68.7500 Du        
   3893 ****       -11.5000  15.5000  69.0000 Du        
   3894 ****       -11.5000  15.5000  69.2500 Du        
   3895 ****       -11.5000  15.5000  69.5000 Du        
   3896 ****       -11.5000  15.5000  69.7500 Du        
   3897 ****       -11.5000  15.5000  70.0000 Du        
   3898 ****       -11.5000  15.5000  70.2500 Du        
   3899 ****       -11.5000  15.5000  70.5000 Du        
   3900 ****       -11.5000  15.5000  70.7500 Du        
   3901 ****       -11.5000  15.5000  71.0000 Du        
   3902 ****       -11.5000  15.5000  71.2500 Du        
   3903 ****       -11.5000  15.5000  71.5000 Du        
   3904 ****       -11.5000  15.5000  71.7500 Du        
   3905 ****       -11.5000  15.5000  72.0000 Du        
   3906 ****       -11.5000  15.5000  72.2500 Du        
   3907 ****       -11.5000  15.5000  72.5000 Du        
   3908 ****       -11.5000  15.7500  68.7500 Du        
   3909 ****       -11.5000  15.7500  69.0000 Du        
   3910 ****       -11.5000  15.7500  69.2500 Du        
   3911 ****       -11.5000  15.7500  69.5000 Du        
   3912 ****       -11.5000  15.7500  69.7500 Du        
   3913 ****       -11.5000  15.7500  70.0000 Du        
   3914 ****       -11.5000  15.7500  70.2500 Du        
   3915 ****       -11.5000  15.7500  70.5000 Du        
   3916 ****       -11.5000  15.7500  70.7500 Du        
   3917 ****       -11.5000  15.7500  71.0000 Du        
   3918 ****       -11.5000  15.7500  71.2500 Du        
   3919 ****       -11.5000  15.7500  71.5000 Du        
   3920 ****       -11.5000  15.7500  71.7500 Du        
   3921 ****       -11.5000  15.7500  72.0000 Du        
   3922 ****       -11.5000  15.7500  72.2500 Du        
   3923 ****       -11.5000  16.0000  68.7500 Du        
   3924 ****       -11.5000  16.0000  69.0000 Du        
   3925 ****       -11.5000  16.0000  69.2500 Du        
   3926 ****       -11.5000  16.0000  69.5000 Du        
   3927 ****       -11.5000  16.0000  69.7500 Du        
   3928 ****       -11.5000  16.0000  70.0000 Du        
   3929 ****       -11.5000  16.0000  70.2500 Du        
   3930 ****       -11.5000  16.0000  70.5000 Du        
   3931 ****       -11.5000  16.0000  70.7500 Du        
   3932 ****       -11.5000  16.0000  71.0000 Du        
   3933 ****       -11.5000  16.0000  71.2500 Du        
   3934 ****       -11.5000  16.0000  71.5000 Du        
   3935 ****       -11.5000  16.2500  68.7500 Du        
   3936 ****       -11.5000  16.2500  69.0000 Du        
   3937 ****       -11.5000  16.2500  69.2500 Du        
   3938 ****       -11.5000  16.2500  69.5000 Du        
   3939 ****       -11.5000  16.2500  69.7500 Du        
   3940 ****       -11.5000  16.2500  70.0000 Du        
   3941 ****       -11.5000  16.2500  70.2500 Du        
   3942 ****       -11.5000  16.2500  70.5000 Du        
   3943 ****       -11.5000  16.2500  70.7500 Du        
   3944 ****       -11.2500   5.7500  73.0000 Du        
   3945 ****       -11.2500   6.0000  72.7500 Du        
   3946 ****       -11.2500   6.0000  73.0000 Du        
   3947 ****       -11.2500   6.2500  72.2500 Du        
   3948 ****       -11.2500   6.2500  72.5000 Du        
   3949 ****       -11.2500   6.2500  72.7500 Du        
   3950 ****       -11.2500   6.2500  73.0000 Du        
   3951 ****       -11.2500   6.5000  72.0000 Du        
   3952 ****       -11.2500   6.5000  72.2500 Du        
   3953 ****       -11.2500   6.5000  72.5000 Du        
   3954 ****       -11.2500   6.5000  72.7500 Du        
   3955 ****       -11.2500   6.5000  73.0000 Du        
   3956 ****       -11.2500   6.7500  71.5000 Du        
   3957 ****       -11.2500   6.7500  71.7500 Du        
   3958 ****       -11.2500   6.7500  72.0000 Du        
   3959 ****       -11.2500   6.7500  72.2500 Du        
   3960 ****       -11.2500   6.7500  72.5000 Du        
   3961 ****       -11.2500   6.7500  72.7500 Du        
   3962 ****       -11.2500   6.7500  73.0000 Du        
   3963 ****       -11.2500   6.7500  73.2500 Du        
   3964 ****       -11.2500   7.0000  71.2500 Du        
   3965 ****       -11.2500   7.0000  71.5000 Du        
   3966 ****       -11.2500   7.0000  71.7500 Du        
   3967 ****       -11.2500   7.0000  72.0000 Du        
   3968 ****       -11.2500   7.0000  72.2500 Du        
   3969 ****       -11.2500   7.0000  72.5000 Du        
   3970 ****       -11.2500   7.0000  72.7500 Du        
   3971 ****       -11.2500   7.0000  73.0000 Du        
   3972 ****       -11.2500   7.0000  73.2500 Du        
   3973 ****       -11.2500   7.2500  71.0000 Du        
   3974 ****       -11.2500   7.2500  71.2500 Du        
   3975 ****       -11.2500   7.2500  71.5000 Du        
   3976 ****       -11.2500   7.2500  71.7500 Du        
   3977 ****       -11.2500   7.2500  72.0000 Du        
   3978 ****       -11.2500   7.2500  72.2500 Du        
   3979 ****       -11.2500   7.2500  72.5000 Du        
   3980 ****       -11.2500   7.2500  72.7500 Du        
   3981 ****       -11.2500   7.2500  73.0000 Du        
   3982 ****       -11.2500   7.5000  71.0000 Du        
   3983 ****       -11.2500   7.5000  71.2500 Du        
   3984 ****       -11.2500   7.5000  71.7500 Du        
   3985 ****       -11.2500   7.5000  72.0000 Du        
   3986 ****       -11.2500   7.5000  72.2500 Du        
   3987 ****       -11.2500   7.5000  72.5000 Du        
   3988 ****       -11.2500   7.5000  72.7500 Du        
   3989 ****       -11.2500   7.5000  73.0000 Du        
   3990 ****       -11.2500   7.7500  71.0000 Du        
   3991 ****       -11.2500   7.7500  71.2500 Du        
   3992 ****       -11.2500   7.7500  71.5000 Du        
   3993 ****       -11.2500   7.7500  71.7500 Du        
   3994 ****       -11.2500   7.7500  72.0000 Du        
   3995 ****       -11.2500   7.7500  72.2500 Du        
   3996 ****       -11.2500   7.7500  72.5000 Du        
   3997 ****       -11.2500   7.7500  72.7500 Du        
   3998 ****       -11.2500   8.0000  71.0000 Du        
   3999 ****       -11.2500   8.0000  71.2500 Du        
   4000 ****       -11.2500   8.0000  71.5000 Du        
   4001 ****       -11.2500   8.0000  71.7500 Du        
   4002 ****       -11.2500   8.0000  72.0000 Du        
   4003 ****       -11.2500   8.0000  72.2500 Du        
   4004 ****       -11.2500   8.2500  71.0000 Du        
   4005 ****       -11.2500   8.2500  71.2500 Du        
   4006 ****       -11.2500   8.2500  71.5000 Du        
   4007 ****       -11.2500   8.2500  71.7500 Du        
   4008 ****       -11.2500   8.2500  72.0000 Du        
   4009 ****       -11.2500   8.5000  70.7500 Du        
   4010 ****       -11.2500   8.5000  71.0000 Du        
   4011 ****       -11.2500   8.5000  71.2500 Du        
   4012 ****       -11.2500   8.5000  71.5000 Du        
   4013 ****       -11.2500   8.7500  70.7500 Du        
   4014 ****       -11.2500   8.7500  71.0000 Du        
   4015 ****       -11.2500   8.7500  71.2500 Du        
   4016 ****       -11.2500   8.7500  71.5000 Du        
   4017 ****       -11.2500   9.0000  70.0000 Du        
   4018 ****       -11.2500   9.0000  70.2500 Du        
   4019 ****       -11.2500   9.0000  70.5000 Du        
   4020 ****       -11.2500   9.0000  70.7500 Du        
   4021 ****       -11.2500   9.0000  71.0000 Du        
   4022 ****       -11.2500   9.0000  71.2500 Du        
   4023 ****       -11.2500   9.2500  70.0000 Du        
   4024 ****       -11.2500   9.2500  70.2500 Du        
   4025 ****       -11.2500   9.2500  70.5000 Du        
   4026 ****       -11.2500   9.2500  70.7500 Du        
   4027 ****       -11.2500   9.2500  71.0000 Du        
   4028 ****       -11.2500   9.5000  70.5000 Du        
   4029 ****       -11.2500   9.5000  70.7500 Du        
   4030 ****       -11.2500   9.7500  70.2500 Du        
   4031 ****       -11.2500   9.7500  70.5000 Du        
   4032 ****       -11.2500  10.0000  70.2500 Du        
   4033 ****       -11.2500  10.2500  70.0000 Du        
   4034 ****       -11.2500  11.2500  63.0000 Du        
   4035 ****       -11.2500  11.2500  63.2500 Du        
   4036 ****       -11.2500  11.2500  63.5000 Du        
   4037 ****       -11.2500  11.2500  63.7500 Du        
   4038 ****       -11.2500  11.5000  63.0000 Du        
   4039 ****       -11.2500  11.5000  63.2500 Du        
   4040 ****       -11.2500  11.5000  63.5000 Du        
   4041 ****       -11.2500  11.5000  63.7500 Du        
   4042 ****       -11.2500  11.5000  64.0000 Du        
   4043 ****       -11.2500  11.5000  64.2500 Du        
   4044 ****       -11.2500  11.5000  64.5000 Du        
   4045 ****       -11.2500  11.7500  63.0000 Du        
   4046 ****       -11.2500  11.7500  63.2500 Du        
   4047 ****       -11.2500  11.7500  63.5000 Du        
   4048 ****       -11.2500  11.7500  63.7500 Du        
   4049 ****       -11.2500  11.7500  64.0000 Du        
   4050 ****       -11.2500  11.7500  64.2500 Du        
   4051 ****       -11.2500  11.7500  64.5000 Du        
   4052 ****       -11.2500  11.7500  64.7500 Du        
   4053 ****       -11.2500  11.7500  65.0000 Du        
   4054 ****       -11.2500  11.7500  65.2500 Du        
   4055 ****       -11.2500  12.0000  63.0000 Du        
   4056 ****       -11.2500  12.0000  63.2500 Du        
   4057 ****       -11.2500  12.0000  63.5000 Du        
   4058 ****       -11.2500  12.0000  63.7500 Du        
   4059 ****       -11.2500  12.0000  64.0000 Du        
   4060 ****       -11.2500  12.0000  64.2500 Du        
   4061 ****       -11.2500  12.0000  64.5000 Du        
   4062 ****       -11.2500  12.0000  64.7500 Du        
   4063 ****       -11.2500  12.0000  65.0000 Du        
   4064 ****       -11.2500  12.0000  65.2500 Du        
   4065 ****       -11.2500  12.0000  65.5000 Du        
   4066 ****       -11.2500  12.0000  65.7500 Du        
   4067 ****       -11.2500  12.0000  66.0000 Du        
   4068 ****       -11.2500  12.2500  63.0000 Du        
   4069 ****       -11.2500  12.2500  63.2500 Du        
   4070 ****       -11.2500  12.2500  63.5000 Du        
   4071 ****       -11.2500  12.2500  63.7500 Du        
   4072 ****       -11.2500  12.2500  64.0000 Du        
   4073 ****       -11.2500  12.2500  64.2500 Du        
   4074 ****       -11.2500  12.2500  64.5000 Du        
   4075 ****       -11.2500  12.2500  64.7500 Du        
   4076 ****       -11.2500  12.2500  65.0000 Du        
   4077 ****       -11.2500  12.2500  65.2500 Du        
   4078 ****       -11.2500  12.2500  65.5000 Du        
   4079 ****       -11.2500  12.2500  65.7500 Du        
   4080 ****       -11.2500  12.2500  66.0000 Du        
   4081 ****       -11.2500  12.2500  66.2500 Du        
   4082 ****       -11.2500  12.5000  63.0000 Du        
   4083 ****       -11.2500  12.5000  63.2500 Du        
   4084 ****       -11.2500  12.5000  63.5000 Du        
   4085 ****       -11.2500  12.5000  63.7500 Du        
   4086 ****       -11.2500  12.5000  64.0000 Du        
   4087 ****       -11.2500  12.5000  64.2500 Du        
   4088 ****       -11.2500  12.5000  64.5000 Du        
   4089 ****       -11.2500  12.5000  64.7500 Du        
   4090 ****       -11.2500  12.5000  65.0000 Du        
   4091 ****       -11.2500  12.5000  65.2500 Du        
   4092 ****       -11.2500  12.5000  65.5000 Du        
   4093 ****       -11.2500  12.5000  65.7500 Du        
   4094 ****       -11.2500  12.5000  66.0000 Du        
   4095 ****       -11.2500  12.5000  66.2500 Du        
   4096 ****       -11.2500  12.7500  63.0000 Du        
   4097 ****       -11.2500  12.7500  63.2500 Du        
   4098 ****       -11.2500  12.7500  63.5000 Du        
   4099 ****       -11.2500  12.7500  63.7500 Du        
   4100 ****       -11.2500  12.7500  64.0000 Du        
   4101 ****       -11.2500  12.7500  64.2500 Du        
   4102 ****       -11.2500  12.7500  64.5000 Du        
   4103 ****       -11.2500  12.7500  64.7500 Du        
   4104 ****       -11.2500  12.7500  65.0000 Du        
   4105 ****       -11.2500  12.7500  65.2500 Du        
   4106 ****       -11.2500  12.7500  65.5000 Du        
   4107 ****       -11.2500  12.7500  65.7500 Du        
   4108 ****       -11.2500  12.7500  66.0000 Du        
   4109 ****       -11.2500  12.7500  66.2500 Du        
   4110 ****       -11.2500  13.0000  63.2500 Du        
   4111 ****       -11.2500  13.0000  63.5000 Du        
   4112 ****       -11.2500  13.0000  63.7500 Du        
   4113 ****       -11.2500  13.0000  64.0000 Du        
   4114 ****       -11.2500  13.0000  64.2500 Du        
   4115 ****       -11.2500  13.0000  64.5000 Du        
   4116 ****       -11.2500  13.0000  64.7500 Du        
   4117 ****       -11.2500  13.0000  65.0000 Du        
   4118 ****       -11.2500  13.0000  65.2500 Du        
   4119 ****       -11.2500  13.0000  65.5000 Du        
   4120 ****       -11.2500  13.0000  65.7500 Du        
   4121 ****       -11.2500  13.0000  66.0000 Du        
   4122 ****       -11.2500  13.0000  66.2500 Du        
   4123 ****       -11.2500  13.2500  63.5000 Du        
   4124 ****       -11.2500  13.2500  63.7500 Du        
   4125 ****       -11.2500  13.2500  64.0000 Du        
   4126 ****       -11.2500  13.2500  64.2500 Du        
   4127 ****       -11.2500  13.2500  64.5000 Du        
   4128 ****       -11.2500  13.2500  64.7500 Du        
   4129 ****       -11.2500  13.2500  65.0000 Du        
   4130 ****       -11.2500  13.2500  65.2500 Du        
   4131 ****       -11.2500  13.2500  65.5000 Du        
   4132 ****       -11.2500  13.2500  65.7500 Du        
   4133 ****       -11.2500  13.2500  66.0000 Du        
   4134 ****       -11.2500  13.2500  66.2500 Du        
   4135 ****       -11.2500  13.5000  63.5000 Du        
   4136 ****       -11.2500  13.5000  63.7500 Du        
   4137 ****       -11.2500  13.5000  64.0000 Du        
   4138 ****       -11.2500  13.5000  64.2500 Du        
   4139 ****       -11.2500  13.5000  64.5000 Du        
   4140 ****       -11.2500  13.5000  64.7500 Du        
   4141 ****       -11.2500  13.5000  65.0000 Du        
   4142 ****       -11.2500  13.5000  65.2500 Du        
   4143 ****       -11.2500  13.5000  65.5000 Du        
   4144 ****       -11.2500  13.5000  65.7500 Du        
   4145 ****       -11.2500  13.5000  66.0000 Du        
   4146 ****       -11.2500  13.5000  66.2500 Du        
   4147 ****       -11.2500  13.7500  63.7500 Du        
   4148 ****       -11.2500  13.7500  64.0000 Du        
   4149 ****       -11.2500  13.7500  64.2500 Du        
   4150 ****       -11.2500  13.7500  64.5000 Du        
   4151 ****       -11.2500  13.7500  64.7500 Du        
   4152 ****       -11.2500  13.7500  65.0000 Du        
   4153 ****       -11.2500  13.7500  65.2500 Du        
   4154 ****       -11.2500  13.7500  65.5000 Du        
   4155 ****       -11.2500  13.7500  65.7500 Du        
   4156 ****       -11.2500  13.7500  66.0000 Du        
   4157 ****       -11.2500  13.7500  66.2500 Du        
   4158 ****       -11.2500  14.0000  64.0000 Du        
   4159 ****       -11.2500  14.0000  64.2500 Du        
   4160 ****       -11.2500  14.0000  64.5000 Du        
   4161 ****       -11.2500  14.0000  64.7500 Du        
   4162 ****       -11.2500  14.0000  65.0000 Du        
   4163 ****       -11.2500  14.0000  65.2500 Du        
   4164 ****       -11.2500  14.0000  65.5000 Du        
   4165 ****       -11.2500  14.0000  65.7500 Du        
   4166 ****       -11.2500  14.0000  66.0000 Du        
   4167 ****       -11.2500  14.0000  66.2500 Du        
   4168 ****       -11.2500  14.0000  69.5000 Du        
   4169 ****       -11.2500  14.0000  69.7500 Du        
   4170 ****       -11.2500  14.0000  70.0000 Du        
   4171 ****       -11.2500  14.2500  64.0000 Du        
   4172 ****       -11.2500  14.2500  64.2500 Du        
   4173 ****       -11.2500  14.2500  64.5000 Du        
   4174 ****       -11.2500  14.2500  64.7500 Du        
   4175 ****       -11.2500  14.2500  65.0000 Du        
   4176 ****       -11.2500  14.2500  65.2500 Du        
   4177 ****       -11.2500  14.2500  65.5000 Du        
   4178 ****       -11.2500  14.2500  65.7500 Du        
   4179 ****       -11.2500  14.2500  66.0000 Du        
   4180 ****       -11.2500  14.2500  66.2500 Du        
   4181 ****       -11.2500  14.2500  69.5000 Du        
   4182 ****       -11.2500  14.2500  69.7500 Du        
   4183 ****       -11.2500  14.2500  70.0000 Du        
   4184 ****       -11.2500  14.2500  70.2500 Du        
   4185 ****       -11.2500  14.5000  64.2500 Du        
   4186 ****       -11.2500  14.5000  64.5000 Du        
   4187 ****       -11.2500  14.5000  64.7500 Du        
   4188 ****       -11.2500  14.5000  65.0000 Du        
   4189 ****       -11.2500  14.5000  65.2500 Du        
   4190 ****       -11.2500  14.5000  65.5000 Du        
   4191 ****       -11.2500  14.5000  65.7500 Du        
   4192 ****       -11.2500  14.5000  66.0000 Du        
   4193 ****       -11.2500  14.5000  66.2500 Du        
   4194 ****       -11.2500  14.5000  69.2500 Du        
   4195 ****       -11.2500  14.5000  69.5000 Du        
   4196 ****       -11.2500  14.5000  69.7500 Du        
   4197 ****       -11.2500  14.5000  70.0000 Du        
   4198 ****       -11.2500  14.5000  70.2500 Du        
   4199 ****       -11.2500  14.5000  70.5000 Du        
   4200 ****       -11.2500  14.5000  70.7500 Du        
   4201 ****       -11.2500  14.7500  64.2500 Du        
   4202 ****       -11.2500  14.7500  64.5000 Du        
   4203 ****       -11.2500  14.7500  64.7500 Du        
   4204 ****       -11.2500  14.7500  65.0000 Du        
   4205 ****       -11.2500  14.7500  65.2500 Du        
   4206 ****       -11.2500  14.7500  65.5000 Du        
   4207 ****       -11.2500  14.7500  65.7500 Du        
   4208 ****       -11.2500  14.7500  69.0000 Du        
   4209 ****       -11.2500  14.7500  69.2500 Du        
   4210 ****       -11.2500  14.7500  69.5000 Du        
   4211 ****       -11.2500  14.7500  69.7500 Du        
   4212 ****       -11.2500  14.7500  70.0000 Du        
   4213 ****       -11.2500  14.7500  70.2500 Du        
   4214 ****       -11.2500  14.7500  70.5000 Du        
   4215 ****       -11.2500  14.7500  70.7500 Du        
   4216 ****       -11.2500  14.7500  71.0000 Du        
   4217 ****       -11.2500  14.7500  71.2500 Du        
   4218 ****       -11.2500  15.0000  64.2500 Du        
   4219 ****       -11.2500  15.0000  64.5000 Du        
   4220 ****       -11.2500  15.0000  64.7500 Du        
   4221 ****       -11.2500  15.0000  65.0000 Du        
   4222 ****       -11.2500  15.0000  68.7500 Du        
   4223 ****       -11.2500  15.0000  69.0000 Du        
   4224 ****       -11.2500  15.0000  69.2500 Du        
   4225 ****       -11.2500  15.0000  69.5000 Du        
   4226 ****       -11.2500  15.0000  69.7500 Du        
   4227 ****       -11.2500  15.0000  70.0000 Du        
   4228 ****       -11.2500  15.0000  70.2500 Du        
   4229 ****       -11.2500  15.0000  70.5000 Du        
   4230 ****       -11.2500  15.0000  70.7500 Du        
   4231 ****       -11.2500  15.0000  71.0000 Du        
   4232 ****       -11.2500  15.0000  71.2500 Du        
   4233 ****       -11.2500  15.0000  71.5000 Du        
   4234 ****       -11.2500  15.0000  71.7500 Du        
   4235 ****       -11.2500  15.2500  68.5000 Du        
   4236 ****       -11.2500  15.2500  68.7500 Du        
   4237 ****       -11.2500  15.2500  69.0000 Du        
   4238 ****       -11.2500  15.2500  69.2500 Du        
   4239 ****       -11.2500  15.2500  69.5000 Du        
   4240 ****       -11.2500  15.2500  69.7500 Du        
   4241 ****       -11.2500  15.2500  70.0000 Du        
   4242 ****       -11.2500  15.2500  70.2500 Du        
   4243 ****       -11.2500  15.2500  70.5000 Du        
   4244 ****       -11.2500  15.2500  70.7500 Du        
   4245 ****       -11.2500  15.2500  71.0000 Du        
   4246 ****       -11.2500  15.2500  71.2500 Du        
   4247 ****       -11.2500  15.2500  71.5000 Du        
   4248 ****       -11.2500  15.2500  71.7500 Du        
   4249 ****       -11.2500  15.5000  68.7500 Du        
   4250 ****       -11.2500  15.5000  69.0000 Du        
   4251 ****       -11.2500  15.5000  69.2500 Du        
   4252 ****       -11.2500  15.5000  69.5000 Du        
   4253 ****       -11.2500  15.5000  69.7500 Du        
   4254 ****       -11.2500  15.5000  70.0000 Du        
   4255 ****       -11.2500  15.5000  70.2500 Du        
   4256 ****       -11.2500  15.5000  70.5000 Du        
   4257 ****       -11.2500  15.5000  70.7500 Du        
   4258 ****       -11.2500  15.5000  71.0000 Du        
   4259 ****       -11.2500  15.5000  71.2500 Du        
   4260 ****       -11.2500  15.5000  71.5000 Du        
   4261 ****       -11.2500  15.5000  71.7500 Du        
   4262 ****       -11.2500  15.7500  68.7500 Du        
   4263 ****       -11.2500  15.7500  69.0000 Du        
   4264 ****       -11.2500  15.7500  69.2500 Du        
   4265 ****       -11.2500  15.7500  69.5000 Du        
   4266 ****       -11.2500  15.7500  69.7500 Du        
   4267 ****       -11.2500  15.7500  70.0000 Du        
   4268 ****       -11.2500  15.7500  70.2500 Du        
   4269 ****       -11.2500  15.7500  70.5000 Du        
   4270 ****       -11.2500  15.7500  70.7500 Du        
   4271 ****       -11.2500  15.7500  71.0000 Du        
   4272 ****       -11.2500  15.7500  71.2500 Du        
   4273 ****       -11.2500  16.0000  68.5000 Du        
   4274 ****       -11.2500  16.0000  68.7500 Du        
   4275 ****       -11.2500  16.0000  69.0000 Du        
   4276 ****       -11.2500  16.0000  69.2500 Du        
   4277 ****       -11.2500  16.0000  69.5000 Du        
   4278 ****       -11.2500  16.0000  69.7500 Du        
   4279 ****       -11.2500  16.0000  70.0000 Du        
   4280 ****       -11.2500  16.0000  70.2500 Du        
   4281 ****       -11.2500  16.0000  70.5000 Du        
   4282 ****       -11.2500  16.0000  70.7500 Du        
   4283 ****       -11.2500  16.0000  71.0000 Du        
   4284 ****       -11.2500  16.2500  68.7500 Du        
   4285 ****       -11.2500  16.2500  69.0000 Du        
   4286 ****       -11.2500  16.2500  69.2500 Du        
   4287 ****       -11.2500  16.2500  69.5000 Du        
   4288 ****       -11.2500  16.2500  69.7500 Du        
   4289 ****       -11.2500  16.2500  70.0000 Du        
   4290 ****       -11.2500  16.2500  70.2500 Du        
   4291 ****       -11.2500  16.5000  69.2500 Du        
   4292 ****       -11.2500  16.5000  69.5000 Du        
   4293 ****       -11.2500  16.5000  69.7500 Du        
   4294 ****       -11.0000   5.7500  73.0000 Du        
   4295 ****       -11.0000   5.7500  73.2500 Du        
   4296 ****       -11.0000   6.0000  72.7500 Du        
   4297 ****       -11.0000   6.0000  73.0000 Du        
   4298 ****       -11.0000   6.0000  73.2500 Du        
   4299 ****       -11.0000   6.2500  72.5000 Du        
   4300 ****       -11.0000   6.2500  72.7500 Du        
   4301 ****       -11.0000   6.2500  73.0000 Du        
   4302 ****       -11.0000   6.2500  73.2500 Du        
   4303 ****       -11.0000   6.5000  72.0000 Du        
   4304 ****       -11.0000   6.5000  72.2500 Du        
   4305 ****       -11.0000   6.5000  72.5000 Du        
   4306 ****       -11.0000   6.5000  72.7500 Du        
   4307 ****       -11.0000   6.5000  73.0000 Du        
   4308 ****       -11.0000   6.5000  73.2500 Du        
   4309 ****       -11.0000   6.7500  71.7500 Du        
   4310 ****       -11.0000   6.7500  72.0000 Du        
   4311 ****       -11.0000   6.7500  72.2500 Du        
   4312 ****       -11.0000   6.7500  72.5000 Du        
   4313 ****       -11.0000   6.7500  72.7500 Du        
   4314 ****       -11.0000   6.7500  73.0000 Du        
   4315 ****       -11.0000   6.7500  73.2500 Du        
   4316 ****       -11.0000   6.7500  73.5000 Du        
   4317 ****       -11.0000   7.0000  71.7500 Du        
   4318 ****       -11.0000   7.0000  72.0000 Du        
   4319 ****       -11.0000   7.0000  72.2500 Du        
   4320 ****       -11.0000   7.0000  72.5000 Du        
   4321 ****       -11.0000   7.0000  72.7500 Du        
   4322 ****       -11.0000   7.0000  73.0000 Du        
   4323 ****       -11.0000   7.0000  73.2500 Du        
   4324 ****       -11.0000   7.0000  73.5000 Du        
   4325 ****       -11.0000   7.2500  71.5000 Du        
   4326 ****       -11.0000   7.2500  71.7500 Du        
   4327 ****       -11.0000   7.2500  72.0000 Du        
   4328 ****       -11.0000   7.2500  72.2500 Du        
   4329 ****       -11.0000   7.2500  72.5000 Du        
   4330 ****       -11.0000   7.2500  72.7500 Du        
   4331 ****       -11.0000   7.2500  73.0000 Du        
   4332 ****       -11.0000   7.2500  73.2500 Du        
   4333 ****       -11.0000   7.5000  71.7500 Du        
   4334 ****       -11.0000   7.5000  72.0000 Du        
   4335 ****       -11.0000   7.5000  72.2500 Du        
   4336 ****       -11.0000   7.5000  72.5000 Du        
   4337 ****       -11.0000   7.5000  72.7500 Du        
   4338 ****       -11.0000   7.5000  73.0000 Du        
   4339 ****       -11.0000   7.7500  71.7500 Du        
   4340 ****       -11.0000   7.7500  72.0000 Du        
   4341 ****       -11.0000   7.7500  72.2500 Du        
   4342 ****       -11.0000   7.7500  72.5000 Du        
   4343 ****       -11.0000   7.7500  72.7500 Du        
   4344 ****       -11.0000   8.0000  71.7500 Du        
   4345 ****       -11.0000   8.0000  72.0000 Du        
   4346 ****       -11.0000   8.0000  72.2500 Du        
   4347 ****       -11.0000   8.2500  72.0000 Du        
   4348 ****       -11.0000   8.5000  71.0000 Du        
   4349 ****       -11.0000   8.5000  71.2500 Du        
   4350 ****       -11.0000   8.7500  70.7500 Du        
   4351 ****       -11.0000   8.7500  71.0000 Du        
   4352 ****       -11.0000   8.7500  71.2500 Du        
   4353 ****       -11.0000   9.0000  70.7500 Du        
   4354 ****       -11.0000   9.0000  71.0000 Du        
   4355 ****       -11.0000   9.2500  70.7500 Du        
   4356 ****       -11.0000  11.0000  63.0000 Du        
   4357 ****       -11.0000  11.0000  63.2500 Du        
   4358 ****       -11.0000  11.0000  63.5000 Du        
   4359 ****       -11.0000  11.2500  63.0000 Du        
   4360 ****       -11.0000  11.2500  63.2500 Du        
   4361 ****       -11.0000  11.2500  63.5000 Du        
   4362 ****       -11.0000  11.2500  63.7500 Du        
   4363 ****       -11.0000  11.2500  64.0000 Du        
   4364 ****       -11.0000  11.2500  64.2500 Du        
   4365 ****       -11.0000  11.5000  63.0000 Du        
   4366 ****       -11.0000  11.5000  63.2500 Du        
   4367 ****       -11.0000  11.5000  63.5000 Du        
   4368 ****       -11.0000  11.5000  63.7500 Du        
   4369 ****       -11.0000  11.5000  64.0000 Du        
   4370 ****       -11.0000  11.5000  64.2500 Du        
   4371 ****       -11.0000  11.5000  64.5000 Du        
   4372 ****       -11.0000  11.5000  64.7500 Du        
   4373 ****       -11.0000  11.5000  65.0000 Du        
   4374 ****       -11.0000  11.7500  63.0000 Du        
   4375 ****       -11.0000  11.7500  63.2500 Du        
   4376 ****       -11.0000  11.7500  63.5000 Du        
   4377 ****       -11.0000  11.7500  63.7500 Du        
   4378 ****       -11.0000  11.7500  64.0000 Du        
   4379 ****       -11.0000  11.7500  64.2500 Du        
   4380 ****       -11.0000  11.7500  64.5000 Du        
   4381 ****       -11.0000  11.7500  64.7500 Du        
   4382 ****       -11.0000  11.7500  65.0000 Du        
   4383 ****       -11.0000  11.7500  65.2500 Du        
   4384 ****       -11.0000  12.0000  63.0000 Du        
   4385 ****       -11.0000  12.0000  63.2500 Du        
   4386 ****       -11.0000  12.0000  63.5000 Du        
   4387 ****       -11.0000  12.0000  63.7500 Du        
   4388 ****       -11.0000  12.0000  64.0000 Du        
   4389 ****       -11.0000  12.0000  64.2500 Du        
   4390 ****       -11.0000  12.0000  64.5000 Du        
   4391 ****       -11.0000  12.0000  64.7500 Du        
   4392 ****       -11.0000  12.0000  65.0000 Du        
   4393 ****       -11.0000  12.0000  65.2500 Du        
   4394 ****       -11.0000  12.0000  65.5000 Du        
   4395 ****       -11.0000  12.0000  65.7500 Du        
   4396 ****       -11.0000  12.0000  66.0000 Du        
   4397 ****       -11.0000  12.2500  63.0000 Du        
   4398 ****       -11.0000  12.2500  63.2500 Du        
   4399 ****       -11.0000  12.2500  63.5000 Du        
   4400 ****       -11.0000  12.2500  63.7500 Du        
   4401 ****       -11.0000  12.2500  64.0000 Du        
   4402 ****       -11.0000  12.2500  64.2500 Du        
   4403 ****       -11.0000  12.2500  64.5000 Du        
   4404 ****       -11.0000  12.2500  64.7500 Du        
   4405 ****       -11.0000  12.2500  65.0000 Du        
   4406 ****       -11.0000  12.2500  65.2500 Du        
   4407 ****       -11.0000  12.2500  65.5000 Du        
   4408 ****       -11.0000  12.2500  65.7500 Du        
   4409 ****       -11.0000  12.2500  66.0000 Du        
   4410 ****       -11.0000  12.2500  66.2500 Du        
   4411 ****       -11.0000  12.5000  63.0000 Du        
   4412 ****       -11.0000  12.5000  63.2500 Du        
   4413 ****       -11.0000  12.5000  63.5000 Du        
   4414 ****       -11.0000  12.5000  63.7500 Du        
   4415 ****       -11.0000  12.5000  64.0000 Du        
   4416 ****       -11.0000  12.5000  64.2500 Du        
   4417 ****       -11.0000  12.5000  64.5000 Du        
   4418 ****       -11.0000  12.5000  64.7500 Du        
   4419 ****       -11.0000  12.5000  65.0000 Du        
   4420 ****       -11.0000  12.5000  65.2500 Du        
   4421 ****       -11.0000  12.5000  65.5000 Du        
   4422 ****       -11.0000  12.5000  65.7500 Du        
   4423 ****       -11.0000  12.5000  66.0000 Du        
   4424 ****       -11.0000  12.5000  66.2500 Du        
   4425 ****       -11.0000  12.7500  63.2500 Du        
   4426 ****       -11.0000  12.7500  63.5000 Du        
   4427 ****       -11.0000  12.7500  63.7500 Du        
   4428 ****       -11.0000  12.7500  64.0000 Du        
   4429 ****       -11.0000  12.7500  64.2500 Du        
   4430 ****       -11.0000  12.7500  64.5000 Du        
   4431 ****       -11.0000  12.7500  64.7500 Du        
   4432 ****       -11.0000  12.7500  65.0000 Du        
   4433 ****       -11.0000  12.7500  65.2500 Du        
   4434 ****       -11.0000  12.7500  65.5000 Du        
   4435 ****       -11.0000  12.7500  65.7500 Du        
   4436 ****       -11.0000  12.7500  66.0000 Du        
   4437 ****       -11.0000  12.7500  66.2500 Du        
   4438 ****       -11.0000  13.0000  63.2500 Du        
   4439 ****       -11.0000  13.0000  63.5000 Du        
   4440 ****       -11.0000  13.0000  63.7500 Du        
   4441 ****       -11.0000  13.0000  64.0000 Du        
   4442 ****       -11.0000  13.0000  64.2500 Du        
   4443 ****       -11.0000  13.0000  64.5000 Du        
   4444 ****       -11.0000  13.0000  64.7500 Du        
   4445 ****       -11.0000  13.0000  65.0000 Du        
   4446 ****       -11.0000  13.0000  65.2500 Du        
   4447 ****       -11.0000  13.0000  65.5000 Du        
   4448 ****       -11.0000  13.0000  65.7500 Du        
   4449 ****       -11.0000  13.0000  66.0000 Du        
   4450 ****       -11.0000  13.0000  66.2500 Du        
   4451 ****       -11.0000  13.2500  63.5000 Du        
   4452 ****       -11.0000  13.2500  63.7500 Du        
   4453 ****       -11.0000  13.2500  64.0000 Du        
   4454 ****       -11.0000  13.2500  64.2500 Du        
   4455 ****       -11.0000  13.2500  64.5000 Du        
   4456 ****       -11.0000  13.2500  64.7500 Du        
   4457 ****       -11.0000  13.2500  65.0000 Du        
   4458 ****       -11.0000  13.2500  65.2500 Du        
   4459 ****       -11.0000  13.2500  65.5000 Du        
   4460 ****       -11.0000  13.2500  65.7500 Du        
   4461 ****       -11.0000  13.2500  66.0000 Du        
   4462 ****       -11.0000  13.5000  63.7500 Du        
   4463 ****       -11.0000  13.5000  64.0000 Du        
   4464 ****       -11.0000  13.5000  64.2500 Du        
   4465 ****       -11.0000  13.5000  64.5000 Du        
   4466 ****       -11.0000  13.5000  64.7500 Du        
   4467 ****       -11.0000  13.5000  65.0000 Du        
   4468 ****       -11.0000  13.5000  65.2500 Du        
   4469 ****       -11.0000  13.5000  65.5000 Du        
   4470 ****       -11.0000  13.5000  65.7500 Du        
   4471 ****       -11.0000  13.5000  66.0000 Du        
   4472 ****       -11.0000  13.5000  66.2500 Du        
   4473 ****       -11.0000  13.7500  64.0000 Du        
   4474 ****       -11.0000  13.7500  64.2500 Du        
   4475 ****       -11.0000  13.7500  64.5000 Du        
   4476 ****       -11.0000  13.7500  64.7500 Du        
   4477 ****       -11.0000  13.7500  65.0000 Du        
   4478 ****       -11.0000  13.7500  65.2500 Du        
   4479 ****       -11.0000  13.7500  65.5000 Du        
   4480 ****       -11.0000  13.7500  65.7500 Du        
   4481 ****       -11.0000  13.7500  66.0000 Du        
   4482 ****       -11.0000  13.7500  66.2500 Du        
   4483 ****       -11.0000  14.0000  64.0000 Du        
   4484 ****       -11.0000  14.0000  64.2500 Du        
   4485 ****       -11.0000  14.0000  64.5000 Du        
   4486 ****       -11.0000  14.0000  64.7500 Du        
   4487 ****       -11.0000  14.0000  65.0000 Du        
   4488 ****       -11.0000  14.0000  65.2500 Du        
   4489 ****       -11.0000  14.0000  65.5000 Du        
   4490 ****       -11.0000  14.0000  65.7500 Du        
   4491 ****       -11.0000  14.0000  66.0000 Du        
   4492 ****       -11.0000  14.0000  66.2500 Du        
   4493 ****       -11.0000  14.2500  64.2500 Du        
   4494 ****       -11.0000  14.2500  64.5000 Du        
   4495 ****       -11.0000  14.2500  64.7500 Du        
   4496 ****       -11.0000  14.2500  65.0000 Du        
   4497 ****       -11.0000  14.2500  65.2500 Du        
   4498 ****       -11.0000  14.2500  65.5000 Du        
   4499 ****       -11.0000  14.2500  65.7500 Du        
   4500 ****       -11.0000  14.2500  66.0000 Du        
   4501 ****       -11.0000  14.2500  66.2500 Du        
   4502 ****       -11.0000  14.2500  69.5000 Du        
   4503 ****       -11.0000  14.5000  64.2500 Du        
   4504 ****       -11.0000  14.5000  64.5000 Du        
   4505 ****       -11.0000  14.5000  64.7500 Du        
   4506 ****       -11.0000  14.5000  65.0000 Du        
   4507 ****       -11.0000  14.5000  65.2500 Du        
   4508 ****       -11.0000  14.5000  65.5000 Du        
   4509 ****       -11.0000  14.5000  65.7500 Du        
   4510 ****       -11.0000  14.5000  66.0000 Du        
   4511 ****       -11.0000  14.5000  66.2500 Du        
   4512 ****       -11.0000  14.7500  64.5000 Du        
   4513 ****       -11.0000  14.7500  64.7500 Du        
   4514 ****       -11.0000  14.7500  65.0000 Du        
   4515 ****       -11.0000  14.7500  65.2500 Du        
   4516 ****       -11.0000  14.7500  65.5000 Du        
   4517 ****       -11.0000  14.7500  65.7500 Du        
   4518 ****       -11.0000  14.7500  66.0000 Du        
   4519 ****       -11.0000  14.7500  66.2500 Du        
   4520 ****       -11.0000  14.7500  66.7500 Du        
   4521 ****       -11.0000  14.7500  69.2500 Du        
   4522 ****       -11.0000  14.7500  69.5000 Du        
   4523 ****       -11.0000  14.7500  69.7500 Du        
   4524 ****       -11.0000  14.7500  70.0000 Du        
   4525 ****       -11.0000  14.7500  70.2500 Du        
   4526 ****       -11.0000  14.7500  70.5000 Du        
   4527 ****       -11.0000  15.0000  64.7500 Du        
   4528 ****       -11.0000  15.0000  65.0000 Du        
   4529 ****       -11.0000  15.0000  65.2500 Du        
   4530 ****       -11.0000  15.0000  65.5000 Du        
   4531 ****       -11.0000  15.0000  65.7500 Du        
   4532 ****       -11.0000  15.0000  66.0000 Du        
   4533 ****       -11.0000  15.0000  69.0000 Du        
   4534 ****       -11.0000  15.0000  69.2500 Du        
   4535 ****       -11.0000  15.0000  69.5000 Du        
   4536 ****       -11.0000  15.0000  69.7500 Du        
   4537 ****       -11.0000  15.0000  70.0000 Du        
   4538 ****       -11.0000  15.0000  70.2500 Du        
   4539 ****       -11.0000  15.0000  70.5000 Du        
   4540 ****       -11.0000  15.0000  70.7500 Du        
   4541 ****       -11.0000  15.0000  71.0000 Du        
   4542 ****       -11.0000  15.2500  69.0000 Du        
   4543 ****       -11.0000  15.2500  69.2500 Du        
   4544 ****       -11.0000  15.2500  69.5000 Du        
   4545 ****       -11.0000  15.2500  69.7500 Du        
   4546 ****       -11.0000  15.2500  70.0000 Du        
   4547 ****       -11.0000  15.2500  70.2500 Du        
   4548 ****       -11.0000  15.2500  70.5000 Du        
   4549 ****       -11.0000  15.2500  70.7500 Du        
   4550 ****       -11.0000  15.2500  71.0000 Du        
   4551 ****       -11.0000  15.2500  71.2500 Du        
   4552 ****       -11.0000  15.5000  68.7500 Du        
   4553 ****       -11.0000  15.5000  69.0000 Du        
   4554 ****       -11.0000  15.5000  69.2500 Du        
   4555 ****       -11.0000  15.5000  69.5000 Du        
   4556 ****       -11.0000  15.5000  69.7500 Du        
   4557 ****       -11.0000  15.5000  70.0000 Du        
   4558 ****       -11.0000  15.5000  70.2500 Du        
   4559 ****       -11.0000  15.5000  70.5000 Du        
   4560 ****       -11.0000  15.5000  70.7500 Du        
   4561 ****       -11.0000  15.7500  68.7500 Du        
   4562 ****       -11.0000  15.7500  69.0000 Du        
   4563 ****       -11.0000  15.7500  69.2500 Du        
   4564 ****       -11.0000  15.7500  69.5000 Du        
   4565 ****       -11.0000  15.7500  69.7500 Du        
   4566 ****       -11.0000  15.7500  70.0000 Du        
   4567 ****       -11.0000  15.7500  70.2500 Du        
   4568 ****       -11.0000  15.7500  70.5000 Du        
   4569 ****       -11.0000  15.7500  70.7500 Du        
   4570 ****       -11.0000  16.0000  68.5000 Du        
   4571 ****       -11.0000  16.0000  68.7500 Du        
   4572 ****       -11.0000  16.0000  69.0000 Du        
   4573 ****       -11.0000  16.0000  69.2500 Du        
   4574 ****       -11.0000  16.0000  69.5000 Du        
   4575 ****       -11.0000  16.0000  69.7500 Du        
   4576 ****       -11.0000  16.0000  70.0000 Du        
   4577 ****       -11.0000  16.0000  70.2500 Du        
   4578 ****       -11.0000  16.2500  68.7500 Du        
   4579 ****       -11.0000  16.2500  69.0000 Du        
   4580 ****       -11.0000  16.2500  69.2500 Du        
   4581 ****       -11.0000  16.2500  69.5000 Du        
   4582 ****       -11.0000  16.2500  69.7500 Du        
   4583 ****       -11.0000  16.2500  70.0000 Du        
   4584 ****       -11.0000  16.5000  68.7500 Du        
   4585 ****       -11.0000  16.5000  69.0000 Du        
   4586 ****       -11.0000  16.5000  69.2500 Du        
   4587 ****       -11.0000  16.5000  69.5000 Du        
   4588 ****       -11.0000  16.7500  68.2500 Du        
   4589 ****       -10.7500   5.7500  73.2500 Du        
   4590 ****       -10.7500   6.0000  73.0000 Du        
   4591 ****       -10.7500   6.0000  73.2500 Du        
   4592 ****       -10.7500   6.2500  72.7500 Du        
   4593 ****       -10.7500   6.2500  73.0000 Du        
   4594 ****       -10.7500   6.2500  73.2500 Du        
   4595 ****       -10.7500   6.2500  73.5000 Du        
   4596 ****       -10.7500   6.5000  72.7500 Du        
   4597 ****       -10.7500   6.5000  73.0000 Du        
   4598 ****       -10.7500   6.5000  73.2500 Du        
   4599 ****       -10.7500   6.5000  73.5000 Du        
   4600 ****       -10.7500   6.5000  73.7500 Du        
   4601 ****       -10.7500   6.7500  72.2500 Du        
   4602 ****       -10.7500   6.7500  72.7500 Du        
   4603 ****       -10.7500   6.7500  73.0000 Du        
   4604 ****       -10.7500   6.7500  73.2500 Du        
   4605 ****       -10.7500   6.7500  73.5000 Du        
   4606 ****       -10.7500   6.7500  73.7500 Du        
   4607 ****       -10.7500   7.0000  71.7500 Du        
   4608 ****       -10.7500   7.0000  72.0000 Du        
   4609 ****       -10.7500   7.0000  72.5000 Du        
   4610 ****       -10.7500   7.0000  72.7500 Du        
   4611 ****       -10.7500   7.0000  73.0000 Du        
   4612 ****       -10.7500   7.0000  73.2500 Du        
   4613 ****       -10.7500   7.0000  73.5000 Du        
   4614 ****       -10.7500   7.2500  71.7500 Du        
   4615 ****       -10.7500   7.2500  72.0000 Du        
   4616 ****       -10.7500   7.2500  72.2500 Du        
   4617 ****       -10.7500   7.2500  72.5000 Du        
   4618 ****       -10.7500   7.2500  72.7500 Du        
   4619 ****       -10.7500   7.2500  73.0000 Du        
   4620 ****       -10.7500   7.2500  73.2500 Du        
   4621 ****       -10.7500   7.2500  73.5000 Du        
   4622 ****       -10.7500   7.5000  72.2500 Du        
   4623 ****       -10.7500   7.5000  72.5000 Du        
   4624 ****       -10.7500   7.5000  72.7500 Du        
   4625 ****       -10.7500   7.5000  73.0000 Du        
   4626 ****       -10.7500   7.7500  72.0000 Du        
   4627 ****       -10.7500   7.7500  72.2500 Du        
   4628 ****       -10.7500   7.7500  72.5000 Du        
   4629 ****       -10.7500   7.7500  72.7500 Du        
   4630 ****       -10.7500  11.0000  63.0000 Du        
   4631 ****       -10.7500  11.0000  63.2500 Du        
   4632 ****       -10.7500  11.0000  63.5000 Du        
   4633 ****       -10.7500  11.0000  63.7500 Du        
   4634 ****       -10.7500  11.0000  64.0000 Du        
   4635 ****       -10.7500  11.2500  63.0000 Du        
   4636 ****       -10.7500  11.2500  63.2500 Du        
   4637 ****       -10.7500  11.2500  63.5000 Du        
   4638 ****       -10.7500  11.2500  63.7500 Du        
   4639 ****       -10.7500  11.2500  64.0000 Du        
   4640 ****       -10.7500  11.2500  64.2500 Du        
   4641 ****       -10.7500  11.2500  64.5000 Du        
   4642 ****       -10.7500  11.2500  64.7500 Du        
   4643 ****       -10.7500  11.5000  63.0000 Du        
   4644 ****       -10.7500  11.5000  63.2500 Du        
   4645 ****       -10.7500  11.5000  63.5000 Du        
   4646 ****       -10.7500  11.5000  63.7500 Du        
   4647 ****       -10.7500  11.5000  64.0000 Du        
   4648 ****       -10.7500  11.5000  64.2500 Du        
   4649 ****       -10.7500  11.5000  64.5000 Du        
   4650 ****       -10.7500  11.5000  64.7500 Du        
   4651 ****       -10.7500  11.5000  65.0000 Du        
   4652 ****       -10.7500  11.5000  65.2500 Du        
   4653 ****       -10.7500  11.7500  63.0000 Du        
   4654 ****       -10.7500  11.7500  63.2500 Du        
   4655 ****       -10.7500  11.7500  63.5000 Du        
   4656 ****       -10.7500  11.7500  63.7500 Du        
   4657 ****       -10.7500  11.7500  64.0000 Du        
   4658 ****       -10.7500  11.7500  64.2500 Du        
   4659 ****       -10.7500  11.7500  64.5000 Du        
   4660 ****       -10.7500  11.7500  64.7500 Du        
   4661 ****       -10.7500  11.7500  65.0000 Du        
   4662 ****       -10.7500  11.7500  65.2500 Du        
   4663 ****       -10.7500  12.0000  63.0000 Du        
   4664 ****       -10.7500  12.0000  63.2500 Du        
   4665 ****       -10.7500  12.0000  63.5000 Du        
   4666 ****       -10.7500  12.0000  63.7500 Du        
   4667 ****       -10.7500  12.0000  64.0000 Du        
   4668 ****       -10.7500  12.0000  64.2500 Du        
   4669 ****       -10.7500  12.0000  64.5000 Du        
   4670 ****       -10.7500  12.0000  64.7500 Du        
   4671 ****       -10.7500  12.0000  65.0000 Du        
   4672 ****       -10.7500  12.0000  65.2500 Du        
   4673 ****       -10.7500  12.0000  65.5000 Du        
   4674 ****       -10.7500  12.2500  63.0000 Du        
   4675 ****       -10.7500  12.2500  63.2500 Du        
   4676 ****       -10.7500  12.2500  63.5000 Du        
   4677 ****       -10.7500  12.2500  63.7500 Du        
   4678 ****       -10.7500  12.2500  64.0000 Du        
   4679 ****       -10.7500  12.2500  64.2500 Du        
   4680 ****       -10.7500  12.2500  64.5000 Du        
   4681 ****       -10.7500  12.2500  64.7500 Du        
   4682 ****       -10.7500  12.2500  65.0000 Du        
   4683 ****       -10.7500  12.2500  65.2500 Du        
   4684 ****       -10.7500  12.2500  65.5000 Du        
   4685 ****       -10.7500  12.2500  65.7500 Du        
   4686 ****       -10.7500  12.5000  63.2500 Du        
   4687 ****       -10.7500  12.5000  63.5000 Du        
   4688 ****       -10.7500  12.5000  63.7500 Du        
   4689 ****       -10.7500  12.5000  64.0000 Du        
   4690 ****       -10.7500  12.5000  64.2500 Du        
   4691 ****       -10.7500  12.5000  64.5000 Du        
   4692 ****       -10.7500  12.5000  64.7500 Du        
   4693 ****       -10.7500  12.5000  65.0000 Du        
   4694 ****       -10.7500  12.5000  65.2500 Du        
   4695 ****       -10.7500  12.5000  65.5000 Du        
   4696 ****       -10.7500  12.5000  65.7500 Du        
   4697 ****       -10.7500  12.5000  66.0000 Du        
   4698 ****       -10.7500  12.7500  63.2500 Du        
   4699 ****       -10.7500  12.7500  63.5000 Du        
   4700 ****       -10.7500  12.7500  63.7500 Du        
   4701 ****       -10.7500  12.7500  64.0000 Du        
   4702 ****       -10.7500  12.7500  64.2500 Du        
   4703 ****       -10.7500  12.7500  64.5000 Du        
   4704 ****       -10.7500  12.7500  64.7500 Du        
   4705 ****       -10.7500  12.7500  65.0000 Du        
   4706 ****       -10.7500  12.7500  65.2500 Du        
   4707 ****       -10.7500  12.7500  65.5000 Du        
   4708 ****       -10.7500  12.7500  65.7500 Du        
   4709 ****       -10.7500  12.7500  66.0000 Du        
   4710 ****       -10.7500  13.0000  63.5000 Du        
   4711 ****       -10.7500  13.0000  63.7500 Du        
   4712 ****       -10.7500  13.0000  64.0000 Du        
   4713 ****       -10.7500  13.0000  64.2500 Du        
   4714 ****       -10.7500  13.0000  64.5000 Du        
   4715 ****       -10.7500  13.0000  64.7500 Du        
   4716 ****       -10.7500  13.0000  65.0000 Du        
   4717 ****       -10.7500  13.0000  65.2500 Du        
   4718 ****       -10.7500  13.0000  65.5000 Du        
   4719 ****       -10.7500  13.0000  65.7500 Du        
   4720 ****       -10.7500  13.0000  66.0000 Du        
   4721 ****       -10.7500  13.2500  63.7500 Du        
   4722 ****       -10.7500  13.2500  64.0000 Du        
   4723 ****       -10.7500  13.2500  64.2500 Du        
   4724 ****       -10.7500  13.2500  64.5000 Du        
   4725 ****       -10.7500  13.2500  64.7500 Du        
   4726 ****       -10.7500  13.2500  65.0000 Du        
   4727 ****       -10.7500  13.2500  65.2500 Du        
   4728 ****       -10.7500  13.2500  65.5000 Du        
   4729 ****       -10.7500  13.2500  65.7500 Du        
   4730 ****       -10.7500  13.2500  66.0000 Du        
   4731 ****       -10.7500  13.5000  64.0000 Du        
   4732 ****       -10.7500  13.5000  64.2500 Du        
   4733 ****       -10.7500  13.5000  64.5000 Du        
   4734 ****       -10.7500  13.5000  64.7500 Du        
   4735 ****       -10.7500  13.5000  65.0000 Du        
   4736 ****       -10.7500  13.5000  65.2500 Du        
   4737 ****       -10.7500  13.5000  65.5000 Du        
   4738 ****       -10.7500  13.5000  65.7500 Du        
   4739 ****       -10.7500  13.5000  66.0000 Du        
   4740 ****       -10.7500  13.7500  64.0000 Du        
   4741 ****       -10.7500  13.7500  64.2500 Du        
   4742 ****       -10.7500  13.7500  64.5000 Du        
   4743 ****       -10.7500  13.7500  64.7500 Du        
   4744 ****       -10.7500  13.7500  65.0000 Du        
   4745 ****       -10.7500  13.7500  65.2500 Du        
   4746 ****       -10.7500  13.7500  65.5000 Du        
   4747 ****       -10.7500  13.7500  65.7500 Du        
   4748 ****       -10.7500  13.7500  66.0000 Du        
   4749 ****       -10.7500  14.0000  64.2500 Du        
   4750 ****       -10.7500  14.0000  64.5000 Du        
   4751 ****       -10.7500  14.0000  64.7500 Du        
   4752 ****       -10.7500  14.0000  65.0000 Du        
   4753 ****       -10.7500  14.0000  65.2500 Du        
   4754 ****       -10.7500  14.0000  65.5000 Du        
   4755 ****       -10.7500  14.0000  65.7500 Du        
   4756 ****       -10.7500  14.0000  66.0000 Du        
   4757 ****       -10.7500  14.0000  66.2500 Du        
   4758 ****       -10.7500  14.2500  64.5000 Du        
   4759 ****       -10.7500  14.2500  64.7500 Du        
   4760 ****       -10.7500  14.2500  65.0000 Du        
   4761 ****       -10.7500  14.2500  65.2500 Du        
   4762 ****       -10.7500  14.2500  65.5000 Du        
   4763 ****       -10.7500  14.2500  65.7500 Du        
   4764 ****       -10.7500  14.2500  66.0000 Du        
   4765 ****       -10.7500  14.2500  66.2500 Du        
   4766 ****       -10.7500  14.5000  64.7500 Du        
   4767 ****       -10.7500  14.5000  65.0000 Du        
   4768 ****       -10.7500  14.5000  65.2500 Du        
   4769 ****       -10.7500  14.5000  65.5000 Du        
   4770 ****       -10.7500  14.5000  65.7500 Du        
   4771 ****       -10.7500  14.5000  66.0000 Du        
   4772 ****       -10.7500  14.5000  66.2500 Du        
   4773 ****       -10.7500  14.7500  64.7500 Du        
   4774 ****       -10.7500  14.7500  65.0000 Du        
   4775 ****       -10.7500  14.7500  65.2500 Du        
   4776 ****       -10.7500  14.7500  65.5000 Du        
   4777 ****       -10.7500  14.7500  65.7500 Du        
   4778 ****       -10.7500  14.7500  66.0000 Du        
   4779 ****       -10.7500  14.7500  66.2500 Du        
   4780 ****       -10.7500  15.0000  65.0000 Du        
   4781 ****       -10.7500  15.0000  65.2500 Du        
   4782 ****       -10.7500  15.0000  65.5000 Du        
   4783 ****       -10.7500  15.0000  65.7500 Du        
   4784 ****       -10.7500  15.0000  66.0000 Du        
   4785 ****       -10.7500  15.0000  66.2500 Du        
   4786 ****       -10.7500  15.0000  69.5000 Du        
   4787 ****       -10.7500  15.0000  69.7500 Du        
   4788 ****       -10.7500  15.0000  70.0000 Du        
   4789 ****       -10.7500  15.0000  70.2500 Du        
   4790 ****       -10.7500  15.2500  65.7500 Du        
   4791 ****       -10.7500  15.2500  66.0000 Du        
   4792 ****       -10.7500  15.2500  69.5000 Du        
   4793 ****       -10.7500  15.2500  69.7500 Du        
   4794 ****       -10.7500  15.2500  70.0000 Du        
   4795 ****       -10.7500  15.2500  70.2500 Du        
   4796 ****       -10.7500  15.2500  70.5000 Du        
   4797 ****       -10.7500  15.5000  69.0000 Du        
   4798 ****       -10.7500  15.5000  69.2500 Du        
   4799 ****       -10.7500  15.5000  69.5000 Du        
   4800 ****       -10.7500  15.5000  69.7500 Du        
   4801 ****       -10.7500  15.5000  70.0000 Du        
   4802 ****       -10.7500  15.5000  70.2500 Du        
   4803 ****       -10.7500  15.7500  69.0000 Du        
   4804 ****       -10.7500  15.7500  69.2500 Du        
   4805 ****       -10.7500  15.7500  69.5000 Du        
   4806 ****       -10.7500  15.7500  69.7500 Du        
   4807 ****       -10.7500  15.7500  70.0000 Du        
   4808 ****       -10.7500  16.0000  68.7500 Du        
   4809 ****       -10.7500  16.0000  69.0000 Du        
   4810 ****       -10.7500  16.0000  69.2500 Du        
   4811 ****       -10.7500  16.0000  69.5000 Du        
   4812 ****       -10.7500  16.0000  69.7500 Du        
   4813 ****       -10.7500  16.0000  70.0000 Du        
   4814 ****       -10.7500  16.2500  68.7500 Du        
   4815 ****       -10.7500  16.2500  69.0000 Du        
   4816 ****       -10.7500  16.2500  69.2500 Du        
   4817 ****       -10.7500  16.2500  69.5000 Du        
   4818 ****       -10.7500  16.2500  69.7500 Du        
   4819 ****       -10.7500  16.5000  68.7500 Du        
   4820 ****       -10.7500  16.5000  69.0000 Du        
   4821 ****       -10.7500  16.7500  68.0000 Du        
   4822 ****       -10.7500  16.7500  68.2500 Du        
   4823 ****       -10.7500  16.7500  68.7500 Du        
   4824 ****       -10.7500  17.0000  68.0000 Du        
   4825 ****       -10.7500  17.0000  68.2500 Du        
   4826 ****       -10.7500  17.0000  68.7500 Du        
   4827 ****       -10.7500  17.2500  68.0000 Du        
   4828 ****       -10.7500  17.2500  68.2500 Du        
   4829 ****       -10.7500  17.5000  67.7500 Du        
   4830 ****       -10.7500  17.5000  68.0000 Du        
   4831 ****       -10.7500  17.5000  68.2500 Du        
   4832 ****       -10.7500  17.7500  67.2500 Du        
   4833 ****       -10.7500  17.7500  67.5000 Du        
   4834 ****       -10.7500  17.7500  67.7500 Du        
   4835 ****       -10.7500  17.7500  68.0000 Du        
   4836 ****       -10.7500  17.7500  68.2500 Du        
   4837 ****       -10.7500  18.0000  67.0000 Du        
   4838 ****       -10.7500  18.0000  67.2500 Du        
   4839 ****       -10.7500  18.0000  67.5000 Du        
   4840 ****       -10.7500  18.0000  67.7500 Du        
   4841 ****       -10.7500  18.0000  68.0000 Du        
   4842 ****       -10.7500  18.2500  66.7500 Du        
   4843 ****       -10.7500  18.2500  67.0000 Du        
   4844 ****       -10.7500  18.2500  67.2500 Du        
   4845 ****       -10.7500  18.2500  67.5000 Du        
   4846 ****       -10.7500  18.2500  67.7500 Du        
   4847 ****       -10.7500  18.2500  68.0000 Du        
   4848 ****       -10.7500  18.5000  66.7500 Du        
   4849 ****       -10.7500  18.5000  67.0000 Du        
   4850 ****       -10.7500  18.5000  67.2500 Du        
   4851 ****       -10.7500  18.5000  67.5000 Du        
   4852 ****       -10.7500  18.5000  67.7500 Du        
   4853 ****       -10.7500  18.5000  68.0000 Du        
   4854 ****       -10.7500  18.7500  66.7500 Du        
   4855 ****       -10.7500  18.7500  67.0000 Du        
   4856 ****       -10.7500  18.7500  67.2500 Du        
   4857 ****       -10.7500  18.7500  67.5000 Du        
   4858 ****       -10.7500  18.7500  67.7500 Du        
   4859 ****       -10.7500  18.7500  68.0000 Du        
   4860 ****       -10.7500  19.0000  66.7500 Du        
   4861 ****       -10.7500  19.0000  67.0000 Du        
   4862 ****       -10.7500  19.0000  67.2500 Du        
   4863 ****       -10.7500  19.0000  67.5000 Du        
   4864 ****       -10.7500  19.0000  67.7500 Du        
   4865 ****       -10.7500  19.0000  68.0000 Du        
   4866 ****       -10.7500  19.2500  66.7500 Du        
   4867 ****       -10.7500  19.2500  67.0000 Du        
   4868 ****       -10.7500  19.2500  67.2500 Du        
   4869 ****       -10.7500  19.2500  67.5000 Du        
   4870 ****       -10.7500  19.2500  67.7500 Du        
   4871 ****       -10.7500  19.5000  67.2500 Du        
   4872 ****       -10.5000   6.7500  73.5000 Du        
   4873 ****       -10.5000   6.7500  73.7500 Du        
   4874 ****       -10.5000   7.0000  73.5000 Du        
   4875 ****       -10.5000  10.7500  63.0000 Du        
   4876 ****       -10.5000  10.7500  63.2500 Du        
   4877 ****       -10.5000  10.7500  63.5000 Du        
   4878 ****       -10.5000  10.7500  63.7500 Du        
   4879 ****       -10.5000  11.0000  63.0000 Du        
   4880 ****       -10.5000  11.0000  63.2500 Du        
   4881 ****       -10.5000  11.0000  63.5000 Du        
   4882 ****       -10.5000  11.0000  63.7500 Du        
   4883 ****       -10.5000  11.0000  64.0000 Du        
   4884 ****       -10.5000  11.0000  64.2500 Du        
   4885 ****       -10.5000  11.2500  63.0000 Du        
   4886 ****       -10.5000  11.2500  63.2500 Du        
   4887 ****       -10.5000  11.2500  63.5000 Du        
   4888 ****       -10.5000  11.2500  63.7500 Du        
   4889 ****       -10.5000  11.2500  64.0000 Du        
   4890 ****       -10.5000  11.2500  64.2500 Du        
   4891 ****       -10.5000  11.2500  64.5000 Du        
   4892 ****       -10.5000  11.5000  63.0000 Du        
   4893 ****       -10.5000  11.5000  63.2500 Du        
   4894 ****       -10.5000  11.5000  63.5000 Du        
   4895 ****       -10.5000  11.5000  63.7500 Du        
   4896 ****       -10.5000  11.5000  64.0000 Du        
   4897 ****       -10.5000  11.5000  64.2500 Du        
   4898 ****       -10.5000  11.5000  64.5000 Du        
   4899 ****       -10.5000  11.7500  63.0000 Du        
   4900 ****       -10.5000  11.7500  63.2500 Du        
   4901 ****       -10.5000  11.7500  63.5000 Du        
   4902 ****       -10.5000  11.7500  63.7500 Du        
   4903 ****       -10.5000  11.7500  64.0000 Du        
   4904 ****       -10.5000  11.7500  64.2500 Du        
   4905 ****       -10.5000  11.7500  64.5000 Du        
   4906 ****       -10.5000  11.7500  64.7500 Du        
   4907 ****       -10.5000  11.7500  65.0000 Du        
   4908 ****       -10.5000  12.0000  63.0000 Du        
   4909 ****       -10.5000  12.0000  63.2500 Du        
   4910 ****       -10.5000  12.0000  63.5000 Du        
   4911 ****       -10.5000  12.0000  63.7500 Du        
   4912 ****       -10.5000  12.0000  64.0000 Du        
   4913 ****       -10.5000  12.0000  64.2500 Du        
   4914 ****       -10.5000  12.0000  64.5000 Du        
   4915 ****       -10.5000  12.0000  64.7500 Du        
   4916 ****       -10.5000  12.0000  65.0000 Du        
   4917 ****       -10.5000  12.0000  65.2500 Du        
   4918 ****       -10.5000  12.2500  63.2500 Du        
   4919 ****       -10.5000  12.2500  63.5000 Du        
   4920 ****       -10.5000  12.2500  63.7500 Du        
   4921 ****       -10.5000  12.2500  64.0000 Du        
   4922 ****       -10.5000  12.2500  64.2500 Du        
   4923 ****       -10.5000  12.2500  64.5000 Du        
   4924 ****       -10.5000  12.2500  64.7500 Du        
   4925 ****       -10.5000  12.2500  65.0000 Du        
   4926 ****       -10.5000  12.2500  65.2500 Du        
   4927 ****       -10.5000  12.5000  63.5000 Du        
   4928 ****       -10.5000  12.5000  63.7500 Du        
   4929 ****       -10.5000  12.5000  64.0000 Du        
   4930 ****       -10.5000  12.5000  64.2500 Du        
   4931 ****       -10.5000  12.5000  64.5000 Du        
   4932 ****       -10.5000  12.5000  64.7500 Du        
   4933 ****       -10.5000  12.5000  65.0000 Du        
   4934 ****       -10.5000  12.5000  65.2500 Du        
   4935 ****       -10.5000  12.7500  63.5000 Du        
   4936 ****       -10.5000  12.7500  63.7500 Du        
   4937 ****       -10.5000  12.7500  64.0000 Du        
   4938 ****       -10.5000  12.7500  64.2500 Du        
   4939 ****       -10.5000  12.7500  64.5000 Du        
   4940 ****       -10.5000  12.7500  64.7500 Du        
   4941 ****       -10.5000  12.7500  65.0000 Du        
   4942 ****       -10.5000  12.7500  65.2500 Du        
   4943 ****       -10.5000  13.0000  63.7500 Du        
   4944 ****       -10.5000  13.0000  64.0000 Du        
   4945 ****       -10.5000  13.0000  64.2500 Du        
   4946 ****       -10.5000  13.0000  64.5000 Du        
   4947 ****       -10.5000  13.0000  64.7500 Du        
   4948 ****       -10.5000  13.0000  65.0000 Du        
   4949 ****       -10.5000  13.0000  65.2500 Du        
   4950 ****       -10.5000  13.2500  64.0000 Du        
   4951 ****       -10.5000  13.2500  64.2500 Du        
   4952 ****       -10.5000  13.2500  64.5000 Du        
   4953 ****       -10.5000  13.2500  64.7500 Du        
   4954 ****       -10.5000  13.2500  65.0000 Du        
   4955 ****       -10.5000  13.2500  65.2500 Du        
   4956 ****       -10.5000  13.5000  64.2500 Du        
   4957 ****       -10.5000  13.5000  64.5000 Du        
   4958 ****       -10.5000  13.5000  64.7500 Du        
   4959 ****       -10.5000  13.5000  65.0000 Du        
   4960 ****       -10.5000  13.5000  65.2500 Du        
   4961 ****       -10.5000  13.7500  64.5000 Du        
   4962 ****       -10.5000  13.7500  64.7500 Du        
   4963 ****       -10.5000  13.7500  65.0000 Du        
   4964 ****       -10.5000  13.7500  65.2500 Du        
   4965 ****       -10.5000  14.0000  64.7500 Du        
   4966 ****       -10.5000  14.0000  65.0000 Du        
   4967 ****       -10.5000  14.0000  65.2500 Du        
   4968 ****       -10.5000  14.2500  65.0000 Du        
   4969 ****       -10.5000  14.2500  65.2500 Du        
   4970 ****       -10.5000  14.5000  65.2500 Du        
   4971 ****       -10.5000  16.7500  67.2500 Du        
   4972 ****       -10.5000  17.0000  67.2500 Du        
   4973 ****       -10.5000  17.2500  67.0000 Du        
   4974 ****       -10.5000  17.2500  67.2500 Du        
   4975 ****       -10.5000  17.5000  67.0000 Du        
   4976 ****       -10.5000  17.5000  67.2500 Du        
   4977 ****       -10.5000  17.5000  67.5000 Du        
   4978 ****       -10.5000  17.5000  67.7500 Du        
   4979 ****       -10.5000  17.5000  68.0000 Du        
   4980 ****       -10.5000  17.5000  68.2500 Du        
   4981 ****       -10.5000  17.7500  66.7500 Du        
   4982 ****       -10.5000  17.7500  67.0000 Du        
   4983 ****       -10.5000  17.7500  67.2500 Du        
   4984 ****       -10.5000  17.7500  67.5000 Du        
   4985 ****       -10.5000  17.7500  67.7500 Du        
   4986 ****       -10.5000  17.7500  68.0000 Du        
   4987 ****       -10.5000  17.7500  68.2500 Du        
   4988 ****       -10.5000  18.0000  66.5000 Du        
   4989 ****       -10.5000  18.0000  66.7500 Du        
   4990 ****       -10.5000  18.0000  67.0000 Du        
   4991 ****       -10.5000  18.0000  67.2500 Du        
   4992 ****       -10.5000  18.0000  67.5000 Du        
   4993 ****       -10.5000  18.0000  67.7500 Du        
   4994 ****       -10.5000  18.0000  68.0000 Du        
   4995 ****       -10.5000  18.0000  68.2500 Du        
   4996 ****       -10.5000  18.2500  66.2500 Du        
   4997 ****       -10.5000  18.2500  66.5000 Du        
   4998 ****       -10.5000  18.2500  66.7500 Du        
   4999 ****       -10.5000  18.2500  67.0000 Du        
   5000 ****       -10.5000  18.2500  67.2500 Du        
   5001 ****       -10.5000  18.2500  67.5000 Du        
   5002 ****       -10.5000  18.2500  67.7500 Du        
   5003 ****       -10.5000  18.2500  68.0000 Du        
   5004 ****       -10.5000  18.2500  68.2500 Du        
   5005 ****       -10.5000  18.5000  66.2500 Du        
   5006 ****       -10.5000  18.5000  66.5000 Du        
   5007 ****       -10.5000  18.5000  66.7500 Du        
   5008 ****       -10.5000  18.5000  67.0000 Du        
   5009 ****       -10.5000  18.5000  67.2500 Du        
   5010 ****       -10.5000  18.5000  67.5000 Du        
   5011 ****       -10.5000  18.5000  67.7500 Du        
   5012 ****       -10.5000  18.5000  68.0000 Du        
   5013 ****       -10.5000  18.5000  68.2500 Du        
   5014 ****       -10.5000  18.7500  66.2500 Du        
   5015 ****       -10.5000  18.7500  66.5000 Du        
   5016 ****       -10.5000  18.7500  66.7500 Du        
   5017 ****       -10.5000  18.7500  67.0000 Du        
   5018 ****       -10.5000  18.7500  67.2500 Du        
   5019 ****       -10.5000  18.7500  67.5000 Du        
   5020 ****       -10.5000  18.7500  67.7500 Du        
   5021 ****       -10.5000  18.7500  68.0000 Du        
   5022 ****       -10.5000  18.7500  68.2500 Du        
   5023 ****       -10.5000  19.0000  66.2500 Du        
   5024 ****       -10.5000  19.0000  66.5000 Du        
   5025 ****       -10.5000  19.0000  66.7500 Du        
   5026 ****       -10.5000  19.0000  67.0000 Du        
   5027 ****       -10.5000  19.0000  67.2500 Du        
   5028 ****       -10.5000  19.0000  67.5000 Du        
   5029 ****       -10.5000  19.0000  67.7500 Du        
   5030 ****       -10.5000  19.0000  68.0000 Du        
   5031 ****       -10.5000  19.2500  66.2500 Du        
   5032 ****       -10.5000  19.2500  66.5000 Du        
   5033 ****       -10.5000  19.2500  66.7500 Du        
   5034 ****       -10.5000  19.2500  67.0000 Du        
   5035 ****       -10.5000  19.2500  67.2500 Du        
   5036 ****       -10.5000  19.2500  67.5000 Du        
   5037 ****       -10.5000  19.2500  67.7500 Du        
   5038 ****       -10.5000  19.2500  68.0000 Du        
   5039 ****       -10.5000  19.5000  66.5000 Du        
   5040 ****       -10.5000  19.5000  66.7500 Du        
   5041 ****       -10.5000  19.5000  67.0000 Du        
   5042 ****       -10.5000  19.5000  67.2500 Du        
   5043 ****       -10.5000  19.5000  67.5000 Du        
   5044 ****       -10.5000  19.5000  67.7500 Du        
   5045 ****       -10.5000  19.5000  68.0000 Du        
   5046 ****       -10.5000  19.7500  66.7500 Du        
   5047 ****       -10.5000  19.7500  67.0000 Du        
   5048 ****       -10.2500   6.7500  73.5000 Du        
   5049 ****       -10.2500   7.0000  73.5000 Du        
   5050 ****       -10.2500  10.5000  63.0000 Du        
   5051 ****       -10.2500  10.7500  62.7500 Du        
   5052 ****       -10.2500  10.7500  63.0000 Du        
   5053 ****       -10.2500  10.7500  63.2500 Du        
   5054 ****       -10.2500  10.7500  63.5000 Du        
   5055 ****       -10.2500  10.7500  63.7500 Du        
   5056 ****       -10.2500  10.7500  64.0000 Du        
   5057 ****       -10.2500  10.7500  64.2500 Du        
   5058 ****       -10.2500  11.0000  62.7500 Du        
   5059 ****       -10.2500  11.0000  63.0000 Du        
   5060 ****       -10.2500  11.0000  63.2500 Du        
   5061 ****       -10.2500  11.0000  63.5000 Du        
   5062 ****       -10.2500  11.0000  63.7500 Du        
   5063 ****       -10.2500  11.0000  64.0000 Du        
   5064 ****       -10.2500  11.0000  64.2500 Du        
   5065 ****       -10.2500  11.2500  63.0000 Du        
   5066 ****       -10.2500  11.2500  63.2500 Du        
   5067 ****       -10.2500  11.2500  63.5000 Du        
   5068 ****       -10.2500  11.2500  63.7500 Du        
   5069 ****       -10.2500  11.2500  64.0000 Du        
   5070 ****       -10.2500  11.2500  64.2500 Du        
   5071 ****       -10.2500  11.2500  64.5000 Du        
   5072 ****       -10.2500  11.2500  64.7500 Du        
   5073 ****       -10.2500  11.5000  63.0000 Du        
   5074 ****       -10.2500  11.5000  63.2500 Du        
   5075 ****       -10.2500  11.5000  63.5000 Du        
   5076 ****       -10.2500  11.5000  63.7500 Du        
   5077 ****       -10.2500  11.5000  64.0000 Du        
   5078 ****       -10.2500  11.5000  64.2500 Du        
   5079 ****       -10.2500  11.5000  64.5000 Du        
   5080 ****       -10.2500  11.5000  64.7500 Du        
   5081 ****       -10.2500  11.7500  63.0000 Du        
   5082 ****       -10.2500  11.7500  63.2500 Du        
   5083 ****       -10.2500  11.7500  63.5000 Du        
   5084 ****       -10.2500  11.7500  63.7500 Du        
   5085 ****       -10.2500  11.7500  64.0000 Du        
   5086 ****       -10.2500  11.7500  64.2500 Du        
   5087 ****       -10.2500  11.7500  64.5000 Du        
   5088 ****       -10.2500  11.7500  64.7500 Du        
   5089 ****       -10.2500  12.0000  63.0000 Du        
   5090 ****       -10.2500  12.0000  63.2500 Du        
   5091 ****       -10.2500  12.0000  63.5000 Du        
   5092 ****       -10.2500  12.0000  63.7500 Du        
   5093 ****       -10.2500  12.0000  64.0000 Du        
   5094 ****       -10.2500  12.0000  64.2500 Du        
   5095 ****       -10.2500  12.0000  64.5000 Du        
   5096 ****       -10.2500  12.0000  64.7500 Du        
   5097 ****       -10.2500  12.0000  65.0000 Du        
   5098 ****       -10.2500  12.2500  63.2500 Du        
   5099 ****       -10.2500  12.2500  63.5000 Du        
   5100 ****       -10.2500  12.2500  63.7500 Du        
   5101 ****       -10.2500  12.2500  64.0000 Du        
   5102 ****       -10.2500  12.2500  64.2500 Du        
   5103 ****       -10.2500  12.2500  64.5000 Du        
   5104 ****       -10.2500  12.2500  64.7500 Du        
   5105 ****       -10.2500  12.2500  65.0000 Du        
   5106 ****       -10.2500  12.2500  65.2500 Du        
   5107 ****       -10.2500  12.5000  63.5000 Du        
   5108 ****       -10.2500  12.5000  63.7500 Du        
   5109 ****       -10.2500  12.5000  64.0000 Du        
   5110 ****       -10.2500  12.5000  64.2500 Du        
   5111 ****       -10.2500  12.5000  64.5000 Du        
   5112 ****       -10.2500  12.5000  64.7500 Du        
   5113 ****       -10.2500  12.5000  65.0000 Du        
   5114 ****       -10.2500  12.5000  65.2500 Du        
   5115 ****       -10.2500  12.7500  63.7500 Du        
   5116 ****       -10.2500  12.7500  64.0000 Du        
   5117 ****       -10.2500  12.7500  64.2500 Du        
   5118 ****       -10.2500  12.7500  64.5000 Du        
   5119 ****       -10.2500  12.7500  64.7500 Du        
   5120 ****       -10.2500  12.7500  65.0000 Du        
   5121 ****       -10.2500  12.7500  65.2500 Du        
   5122 ****       -10.2500  13.0000  64.0000 Du        
   5123 ****       -10.2500  13.0000  64.2500 Du        
   5124 ****       -10.2500  13.0000  64.5000 Du        
   5125 ****       -10.2500  13.0000  64.7500 Du        
   5126 ****       -10.2500  13.0000  65.0000 Du        
   5127 ****       -10.2500  13.0000  65.2500 Du        
   5128 ****       -10.2500  13.2500  64.2500 Du        
   5129 ****       -10.2500  13.2500  64.5000 Du        
   5130 ****       -10.2500  13.2500  64.7500 Du        
   5131 ****       -10.2500  13.2500  65.0000 Du        
   5132 ****       -10.2500  13.2500  65.2500 Du        
   5133 ****       -10.2500  13.5000  64.7500 Du        
   5134 ****       -10.2500  13.5000  65.0000 Du        
   5135 ****       -10.2500  13.7500  65.2500 Du        
   5136 ****       -10.2500  15.7500  66.5000 Du        
   5137 ****       -10.2500  15.7500  66.7500 Du        
   5138 ****       -10.2500  15.7500  67.0000 Du        
   5139 ****       -10.2500  16.0000  66.7500 Du        
   5140 ****       -10.2500  16.0000  67.0000 Du        
   5141 ****       -10.2500  16.2500  67.0000 Du        
   5142 ****       -10.2500  16.5000  67.2500 Du        
   5143 ****       -10.2500  16.7500  67.0000 Du        
   5144 ****       -10.2500  16.7500  67.2500 Du        
   5145 ****       -10.2500  16.7500  67.7500 Du        
   5146 ****       -10.2500  17.0000  67.0000 Du        
   5147 ****       -10.2500  17.0000  67.2500 Du        
   5148 ****       -10.2500  17.0000  67.5000 Du        
   5149 ****       -10.2500  17.0000  67.7500 Du        
   5150 ****       -10.2500  17.2500  66.7500 Du        
   5151 ****       -10.2500  17.2500  67.0000 Du        
   5152 ****       -10.2500  17.2500  67.2500 Du        
   5153 ****       -10.2500  17.2500  67.5000 Du        
   5154 ****       -10.2500  17.2500  67.7500 Du        
   5155 ****       -10.2500  17.2500  68.0000 Du        
   5156 ****       -10.2500  17.5000  66.7500 Du        
   5157 ****       -10.2500  17.5000  67.0000 Du        
   5158 ****       -10.2500  17.5000  67.2500 Du        
   5159 ****       -10.2500  17.5000  67.5000 Du        
   5160 ****       -10.2500  17.5000  67.7500 Du        
   5161 ****       -10.2500  17.5000  68.0000 Du        
   5162 ****       -10.2500  17.5000  68.2500 Du        
   5163 ****       -10.2500  17.7500  66.7500 Du        
   5164 ****       -10.2500  17.7500  67.0000 Du        
   5165 ****       -10.2500  17.7500  67.2500 Du        
   5166 ****       -10.2500  17.7500  67.5000 Du        
   5167 ****       -10.2500  17.7500  67.7500 Du        
   5168 ****       -10.2500  17.7500  68.0000 Du        
   5169 ****       -10.2500  17.7500  68.2500 Du        
   5170 ****       -10.2500  18.0000  66.2500 Du        
   5171 ****       -10.2500  18.0000  66.5000 Du        
   5172 ****       -10.2500  18.0000  66.7500 Du        
   5173 ****       -10.2500  18.0000  67.0000 Du        
   5174 ****       -10.2500  18.0000  67.2500 Du        
   5175 ****       -10.2500  18.0000  67.5000 Du        
   5176 ****       -10.2500  18.0000  67.7500 Du        
   5177 ****       -10.2500  18.0000  68.0000 Du        
   5178 ****       -10.2500  18.0000  68.2500 Du        
   5179 ****       -10.2500  18.2500  66.2500 Du        
   5180 ****       -10.2500  18.2500  66.5000 Du        
   5181 ****       -10.2500  18.2500  66.7500 Du        
   5182 ****       -10.2500  18.2500  67.0000 Du        
   5183 ****       -10.2500  18.2500  67.2500 Du        
   5184 ****       -10.2500  18.2500  67.5000 Du        
   5185 ****       -10.2500  18.2500  67.7500 Du        
   5186 ****       -10.2500  18.2500  68.0000 Du        
   5187 ****       -10.2500  18.2500  68.2500 Du        
   5188 ****       -10.2500  18.5000  66.2500 Du        
   5189 ****       -10.2500  18.5000  66.5000 Du        
   5190 ****       -10.2500  18.5000  66.7500 Du        
   5191 ****       -10.2500  18.5000  67.0000 Du        
   5192 ****       -10.2500  18.5000  67.2500 Du        
   5193 ****       -10.2500  18.5000  67.5000 Du        
   5194 ****       -10.2500  18.5000  67.7500 Du        
   5195 ****       -10.2500  18.5000  68.0000 Du        
   5196 ****       -10.2500  18.5000  68.2500 Du        
   5197 ****       -10.2500  18.7500  66.2500 Du        
   5198 ****       -10.2500  18.7500  66.5000 Du        
   5199 ****       -10.2500  18.7500  66.7500 Du        
   5200 ****       -10.2500  18.7500  67.0000 Du        
   5201 ****       -10.2500  18.7500  67.2500 Du        
   5202 ****       -10.2500  18.7500  67.5000 Du        
   5203 ****       -10.2500  18.7500  67.7500 Du        
   5204 ****       -10.2500  18.7500  68.0000 Du        
   5205 ****       -10.2500  18.7500  68.2500 Du        
   5206 ****       -10.2500  19.0000  66.2500 Du        
   5207 ****       -10.2500  19.0000  66.5000 Du        
   5208 ****       -10.2500  19.0000  66.7500 Du        
   5209 ****       -10.2500  19.0000  67.0000 Du        
   5210 ****       -10.2500  19.0000  67.2500 Du        
   5211 ****       -10.2500  19.0000  67.5000 Du        
   5212 ****       -10.2500  19.0000  67.7500 Du        
   5213 ****       -10.2500  19.0000  68.0000 Du        
   5214 ****       -10.2500  19.0000  68.2500 Du        
   5215 ****       -10.2500  19.2500  66.0000 Du        
   5216 ****       -10.2500  19.2500  66.2500 Du        
   5217 ****       -10.2500  19.2500  66.5000 Du        
   5218 ****       -10.2500  19.2500  66.7500 Du        
   5219 ****       -10.2500  19.2500  67.0000 Du        
   5220 ****       -10.2500  19.2500  67.2500 Du        
   5221 ****       -10.2500  19.2500  67.5000 Du        
   5222 ****       -10.2500  19.2500  67.7500 Du        
   5223 ****       -10.2500  19.2500  68.0000 Du        
   5224 ****       -10.2500  19.2500  68.2500 Du        
   5225 ****       -10.2500  19.5000  66.0000 Du        
   5226 ****       -10.2500  19.5000  66.2500 Du        
   5227 ****       -10.2500  19.5000  66.5000 Du        
   5228 ****       -10.2500  19.5000  66.7500 Du        
   5229 ****       -10.2500  19.5000  67.0000 Du        
   5230 ****       -10.2500  19.5000  67.2500 Du        
   5231 ****       -10.2500  19.5000  67.5000 Du        
   5232 ****       -10.2500  19.5000  67.7500 Du        
   5233 ****       -10.2500  19.5000  68.0000 Du        
   5234 ****       -10.2500  19.5000  68.2500 Du        
   5235 ****       -10.2500  19.7500  66.2500 Du        
   5236 ****       -10.2500  19.7500  66.5000 Du        
   5237 ****       -10.2500  19.7500  66.7500 Du        
   5238 ****       -10.2500  19.7500  67.0000 Du        
   5239 ****       -10.2500  19.7500  67.2500 Du        
   5240 ****       -10.2500  19.7500  67.5000 Du        
   5241 ****       -10.2500  19.7500  67.7500 Du        
   5242 ****       -10.2500  19.7500  68.0000 Du        
   5243 ****       -10.2500  19.7500  68.2500 Du        
   5244 ****       -10.2500  20.0000  66.7500 Du        
   5245 ****       -10.2500  20.0000  67.0000 Du        
   5246 ****       -10.2500  20.0000  67.2500 Du        
   5247 ****       -10.0000  10.5000  62.7500 Du        
   5248 ****       -10.0000  10.5000  63.0000 Du        
   5249 ****       -10.0000  10.5000  63.2500 Du        
   5250 ****       -10.0000  10.5000  63.5000 Du        
   5251 ****       -10.0000  10.5000  63.7500 Du        
   5252 ****       -10.0000  10.7500  62.7500 Du        
   5253 ****       -10.0000  10.7500  63.0000 Du        
   5254 ****       -10.0000  10.7500  63.2500 Du        
   5255 ****       -10.0000  10.7500  63.5000 Du        
   5256 ****       -10.0000  10.7500  63.7500 Du        
   5257 ****       -10.0000  10.7500  64.0000 Du        
   5258 ****       -10.0000  10.7500  64.2500 Du        
   5259 ****       -10.0000  11.0000  62.7500 Du        
   5260 ****       -10.0000  11.0000  63.0000 Du        
   5261 ****       -10.0000  11.0000  63.2500 Du        
   5262 ****       -10.0000  11.0000  63.5000 Du        
   5263 ****       -10.0000  11.0000  63.7500 Du        
   5264 ****       -10.0000  11.0000  64.0000 Du        
   5265 ****       -10.0000  11.0000  64.2500 Du        
   5266 ****       -10.0000  11.2500  63.0000 Du        
   5267 ****       -10.0000  11.2500  63.2500 Du        
   5268 ****       -10.0000  11.2500  63.5000 Du        
   5269 ****       -10.0000  11.2500  63.7500 Du        
   5270 ****       -10.0000  11.2500  64.0000 Du        
   5271 ****       -10.0000  11.2500  64.2500 Du        
   5272 ****       -10.0000  11.2500  64.5000 Du        
   5273 ****       -10.0000  11.5000  63.0000 Du        
   5274 ****       -10.0000  11.5000  63.2500 Du        
   5275 ****       -10.0000  11.5000  63.5000 Du        
   5276 ****       -10.0000  11.5000  63.7500 Du        
   5277 ****       -10.0000  11.5000  64.0000 Du        
   5278 ****       -10.0000  11.5000  64.2500 Du        
   5279 ****       -10.0000  11.7500  63.0000 Du        
   5280 ****       -10.0000  11.7500  63.2500 Du        
   5281 ****       -10.0000  11.7500  63.5000 Du        
   5282 ****       -10.0000  11.7500  63.7500 Du        
   5283 ****       -10.0000  11.7500  64.0000 Du        
   5284 ****       -10.0000  11.7500  64.2500 Du        
   5285 ****       -10.0000  11.7500  64.5000 Du        
   5286 ****       -10.0000  11.7500  64.7500 Du        
   5287 ****       -10.0000  12.0000  63.2500 Du        
   5288 ****       -10.0000  12.0000  63.5000 Du        
   5289 ****       -10.0000  12.0000  63.7500 Du        
   5290 ****       -10.0000  12.0000  64.0000 Du        
   5291 ****       -10.0000  12.0000  64.2500 Du        
   5292 ****       -10.0000  12.0000  64.5000 Du        
   5293 ****       -10.0000  12.0000  64.7500 Du        
   5294 ****       -10.0000  12.2500  63.5000 Du        
   5295 ****       -10.0000  12.2500  63.7500 Du        
   5296 ****       -10.0000  12.2500  64.0000 Du        
   5297 ****       -10.0000  12.2500  64.2500 Du        
   5298 ****       -10.0000  12.2500  64.5000 Du        
   5299 ****       -10.0000  12.2500  64.7500 Du        
   5300 ****       -10.0000  12.5000  63.7500 Du        
   5301 ****       -10.0000  12.5000  64.0000 Du        
   5302 ****       -10.0000  12.5000  64.2500 Du        
   5303 ****       -10.0000  12.5000  64.5000 Du        
   5304 ****       -10.0000  12.5000  64.7500 Du        
   5305 ****       -10.0000  12.7500  64.5000 Du        
   5306 ****       -10.0000  12.7500  64.7500 Du        
   5307 ****       -10.0000  12.7500  65.0000 Du        
   5308 ****       -10.0000  16.0000  66.7500 Du        
   5309 ****       -10.0000  16.0000  67.0000 Du        
   5310 ****       -10.0000  16.2500  66.7500 Du        
   5311 ****       -10.0000  16.2500  67.0000 Du        
   5312 ****       -10.0000  16.5000  66.7500 Du        
   5313 ****       -10.0000  16.5000  67.0000 Du        
   5314 ****       -10.0000  16.5000  67.2500 Du        
   5315 ****       -10.0000  16.7500  66.7500 Du        
   5316 ****       -10.0000  16.7500  67.0000 Du        
   5317 ****       -10.0000  16.7500  67.2500 Du        
   5318 ****       -10.0000  17.0000  66.7500 Du        
   5319 ****       -10.0000  17.0000  67.0000 Du        
   5320 ****       -10.0000  17.0000  67.2500 Du        
   5321 ****       -10.0000  17.0000  67.5000 Du        
   5322 ****       -10.0000  17.0000  67.7500 Du        
   5323 ****       -10.0000  17.0000  68.0000 Du        
   5324 ****       -10.0000  17.2500  66.7500 Du        
   5325 ****       -10.0000  17.2500  67.0000 Du        
   5326 ****       -10.0000  17.2500  67.2500 Du        
   5327 ****       -10.0000  17.2500  67.5000 Du        
   5328 ****       -10.0000  17.2500  67.7500 Du        
   5329 ****       -10.0000  17.2500  68.0000 Du        
   5330 ****       -10.0000  17.5000  66.7500 Du        
   5331 ****       -10.0000  17.5000  67.0000 Du        
   5332 ****       -10.0000  17.5000  67.2500 Du        
   5333 ****       -10.0000  17.5000  67.5000 Du        
   5334 ****       -10.0000  17.5000  67.7500 Du        
   5335 ****       -10.0000  17.5000  68.0000 Du        
   5336 ****       -10.0000  17.7500  66.7500 Du        
   5337 ****       -10.0000  17.7500  67.0000 Du        
   5338 ****       -10.0000  17.7500  67.2500 Du        
   5339 ****       -10.0000  17.7500  67.5000 Du        
   5340 ****       -10.0000  17.7500  67.7500 Du        
   5341 ****       -10.0000  17.7500  68.0000 Du        
   5342 ****       -10.0000  17.7500  68.2500 Du        
   5343 ****       -10.0000  18.0000  66.5000 Du        
   5344 ****       -10.0000  18.0000  66.7500 Du        
   5345 ****       -10.0000  18.0000  67.0000 Du        
   5346 ****       -10.0000  18.0000  67.2500 Du        
   5347 ****       -10.0000  18.0000  67.5000 Du        
   5348 ****       -10.0000  18.0000  67.7500 Du        
   5349 ****       -10.0000  18.0000  68.0000 Du        
   5350 ****       -10.0000  18.0000  68.2500 Du        
   5351 ****       -10.0000  18.2500  66.2500 Du        
   5352 ****       -10.0000  18.2500  66.5000 Du        
   5353 ****       -10.0000  18.2500  66.7500 Du        
   5354 ****       -10.0000  18.2500  67.0000 Du        
   5355 ****       -10.0000  18.2500  67.2500 Du        
   5356 ****       -10.0000  18.2500  67.5000 Du        
   5357 ****       -10.0000  18.2500  67.7500 Du        
   5358 ****       -10.0000  18.2500  68.0000 Du        
   5359 ****       -10.0000  18.2500  68.2500 Du        
   5360 ****       -10.0000  18.5000  66.2500 Du        
   5361 ****       -10.0000  18.5000  66.5000 Du        
   5362 ****       -10.0000  18.5000  66.7500 Du        
   5363 ****       -10.0000  18.5000  67.0000 Du        
   5364 ****       -10.0000  18.5000  67.2500 Du        
   5365 ****       -10.0000  18.5000  67.5000 Du        
   5366 ****       -10.0000  18.5000  67.7500 Du        
   5367 ****       -10.0000  18.5000  68.0000 Du        
   5368 ****       -10.0000  18.5000  68.2500 Du        
   5369 ****       -10.0000  18.5000  68.5000 Du        
   5370 ****       -10.0000  18.7500  66.2500 Du        
   5371 ****       -10.0000  18.7500  66.5000 Du        
   5372 ****       -10.0000  18.7500  66.7500 Du        
   5373 ****       -10.0000  18.7500  67.0000 Du        
   5374 ****       -10.0000  18.7500  67.2500 Du        
   5375 ****       -10.0000  18.7500  67.5000 Du        
   5376 ****       -10.0000  18.7500  67.7500 Du        
   5377 ****       -10.0000  18.7500  68.0000 Du        
   5378 ****       -10.0000  18.7500  68.2500 Du        
   5379 ****       -10.0000  18.7500  68.5000 Du        
   5380 ****       -10.0000  19.0000  66.2500 Du        
   5381 ****       -10.0000  19.0000  66.5000 Du        
   5382 ****       -10.0000  19.0000  66.7500 Du        
   5383 ****       -10.0000  19.0000  67.0000 Du        
   5384 ****       -10.0000  19.0000  67.2500 Du        
   5385 ****       -10.0000  19.0000  67.5000 Du        
   5386 ****       -10.0000  19.0000  67.7500 Du        
   5387 ****       -10.0000  19.0000  68.0000 Du        
   5388 ****       -10.0000  19.0000  68.2500 Du        
   5389 ****       -10.0000  19.0000  68.5000 Du        
   5390 ****       -10.0000  19.2500  66.2500 Du        
   5391 ****       -10.0000  19.2500  66.5000 Du        
   5392 ****       -10.0000  19.2500  66.7500 Du        
   5393 ****       -10.0000  19.2500  67.0000 Du        
   5394 ****       -10.0000  19.2500  67.2500 Du        
   5395 ****       -10.0000  19.2500  67.5000 Du        
   5396 ****       -10.0000  19.2500  67.7500 Du        
   5397 ****       -10.0000  19.2500  68.0000 Du        
   5398 ****       -10.0000  19.2500  68.2500 Du        
   5399 ****       -10.0000  19.2500  68.5000 Du        
   5400 ****       -10.0000  19.5000  66.0000 Du        
   5401 ****       -10.0000  19.5000  66.2500 Du        
   5402 ****       -10.0000  19.5000  66.5000 Du        
   5403 ****       -10.0000  19.5000  66.7500 Du        
   5404 ****       -10.0000  19.5000  67.0000 Du        
   5405 ****       -10.0000  19.5000  67.2500 Du        
   5406 ****       -10.0000  19.5000  67.5000 Du        
   5407 ****       -10.0000  19.5000  67.7500 Du        
   5408 ****       -10.0000  19.5000  68.0000 Du        
   5409 ****       -10.0000  19.5000  68.2500 Du        
   5410 ****       -10.0000  19.5000  68.5000 Du        
   5411 ****       -10.0000  19.7500  66.2500 Du        
   5412 ****       -10.0000  19.7500  66.5000 Du        
   5413 ****       -10.0000  19.7500  66.7500 Du        
   5414 ****       -10.0000  19.7500  67.0000 Du        
   5415 ****       -10.0000  19.7500  67.2500 Du        
   5416 ****       -10.0000  19.7500  67.5000 Du        
   5417 ****       -10.0000  19.7500  67.7500 Du        
   5418 ****       -10.0000  19.7500  68.0000 Du        
   5419 ****       -10.0000  19.7500  68.2500 Du        
   5420 ****       -10.0000  19.7500  68.5000 Du        
   5421 ****       -10.0000  20.0000  66.2500 Du        
   5422 ****       -10.0000  20.0000  66.5000 Du        
   5423 ****       -10.0000  20.0000  66.7500 Du        
   5424 ****       -10.0000  20.0000  67.0000 Du        
   5425 ****       -10.0000  20.0000  67.2500 Du        
   5426 ****       -10.0000  20.0000  67.5000 Du        
   5427 ****       -10.0000  20.0000  67.7500 Du        
   5428 ****       -10.0000  20.0000  68.0000 Du        
   5429 ****       -10.0000  20.0000  68.2500 Du        
   5430 ****       -10.0000  20.2500  66.7500 Du        
   5431 ****       -10.0000  20.2500  67.0000 Du        
   5432 ****       -10.0000  20.2500  67.2500 Du        
   5433 ****        -9.7500  10.2500  62.7500 Du        
   5434 ****        -9.7500  10.2500  63.0000 Du        
   5435 ****        -9.7500  10.5000  62.5000 Du        
   5436 ****        -9.7500  10.5000  62.7500 Du        
   5437 ****        -9.7500  10.5000  63.0000 Du        
   5438 ****        -9.7500  10.5000  63.2500 Du        
   5439 ****        -9.7500  10.5000  63.5000 Du        
   5440 ****        -9.7500  10.5000  63.7500 Du        
   5441 ****        -9.7500  10.7500  62.7500 Du        
   5442 ****        -9.7500  10.7500  63.0000 Du        
   5443 ****        -9.7500  10.7500  63.2500 Du        
   5444 ****        -9.7500  10.7500  63.5000 Du        
   5445 ****        -9.7500  10.7500  63.7500 Du        
   5446 ****        -9.7500  10.7500  64.0000 Du        
   5447 ****        -9.7500  11.0000  62.7500 Du        
   5448 ****        -9.7500  11.0000  63.0000 Du        
   5449 ****        -9.7500  11.0000  63.2500 Du        
   5450 ****        -9.7500  11.0000  63.5000 Du        
   5451 ****        -9.7500  11.0000  63.7500 Du        
   5452 ****        -9.7500  11.0000  64.0000 Du        
   5453 ****        -9.7500  11.2500  63.0000 Du        
   5454 ****        -9.7500  11.2500  63.2500 Du        
   5455 ****        -9.7500  11.2500  63.5000 Du        
   5456 ****        -9.7500  11.2500  63.7500 Du        
   5457 ****        -9.7500  11.2500  64.0000 Du        
   5458 ****        -9.7500  11.2500  64.2500 Du        
   5459 ****        -9.7500  11.5000  63.0000 Du        
   5460 ****        -9.7500  11.5000  63.2500 Du        
   5461 ****        -9.7500  11.5000  63.5000 Du        
   5462 ****        -9.7500  11.5000  63.7500 Du        
   5463 ****        -9.7500  11.5000  64.0000 Du        
   5464 ****        -9.7500  11.5000  64.2500 Du        
   5465 ****        -9.7500  11.7500  63.2500 Du        
   5466 ****        -9.7500  11.7500  63.5000 Du        
   5467 ****        -9.7500  11.7500  63.7500 Du        
   5468 ****        -9.7500  11.7500  64.0000 Du        
   5469 ****        -9.7500  11.7500  64.2500 Du        
   5470 ****        -9.7500  12.0000  63.5000 Du        
   5471 ****        -9.7500  12.0000  63.7500 Du        
   5472 ****        -9.7500  12.0000  64.0000 Du        
   5473 ****        -9.7500  16.0000  66.7500 Du        
   5474 ****        -9.7500  16.2500  66.7500 Du        
   5475 ****        -9.7500  16.2500  67.0000 Du        
   5476 ****        -9.7500  16.7500  67.0000 Du        
   5477 ****        -9.7500  16.7500  67.2500 Du        
   5478 ****        -9.7500  17.0000  66.7500 Du        
   5479 ****        -9.7500  17.0000  67.0000 Du        
   5480 ****        -9.7500  17.0000  67.2500 Du        
   5481 ****        -9.7500  17.2500  66.7500 Du        
   5482 ****        -9.7500  17.2500  67.0000 Du        
   5483 ****        -9.7500  17.2500  67.2500 Du        
   5484 ****        -9.7500  17.2500  67.5000 Du        
   5485 ****        -9.7500  17.2500  67.7500 Du        
   5486 ****        -9.7500  17.5000  66.7500 Du        
   5487 ****        -9.7500  17.5000  67.0000 Du        
   5488 ****        -9.7500  17.5000  67.2500 Du        
   5489 ****        -9.7500  17.5000  67.5000 Du        
   5490 ****        -9.7500  17.5000  67.7500 Du        
   5491 ****        -9.7500  17.7500  66.7500 Du        
   5492 ****        -9.7500  17.7500  67.0000 Du        
   5493 ****        -9.7500  17.7500  67.2500 Du        
   5494 ****        -9.7500  17.7500  67.5000 Du        
   5495 ****        -9.7500  17.7500  67.7500 Du        
   5496 ****        -9.7500  17.7500  68.0000 Du        
   5497 ****        -9.7500  18.0000  66.7500 Du        
   5498 ****        -9.7500  18.0000  67.0000 Du        
   5499 ****        -9.7500  18.0000  67.2500 Du        
   5500 ****        -9.7500  18.0000  67.5000 Du        
   5501 ****        -9.7500  18.0000  67.7500 Du        
   5502 ****        -9.7500  18.0000  68.0000 Du        
   5503 ****        -9.7500  18.0000  68.2500 Du        
   5504 ****        -9.7500  18.2500  66.5000 Du        
   5505 ****        -9.7500  18.2500  66.7500 Du        
   5506 ****        -9.7500  18.2500  67.0000 Du        
   5507 ****        -9.7500  18.2500  67.2500 Du        
   5508 ****        -9.7500  18.2500  67.5000 Du        
   5509 ****        -9.7500  18.2500  67.7500 Du        
   5510 ****        -9.7500  18.2500  68.0000 Du        
   5511 ****        -9.7500  18.2500  68.2500 Du        
   5512 ****        -9.7500  18.5000  66.5000 Du        
   5513 ****        -9.7500  18.5000  66.7500 Du        
   5514 ****        -9.7500  18.5000  67.0000 Du        
   5515 ****        -9.7500  18.5000  67.2500 Du        
   5516 ****        -9.7500  18.5000  67.5000 Du        
   5517 ****        -9.7500  18.5000  67.7500 Du        
   5518 ****        -9.7500  18.5000  68.0000 Du        
   5519 ****        -9.7500  18.5000  68.2500 Du        
   5520 ****        -9.7500  18.5000  68.5000 Du        
   5521 ****        -9.7500  18.7500  66.2500 Du        
   5522 ****        -9.7500  18.7500  66.5000 Du        
   5523 ****        -9.7500  18.7500  66.7500 Du        
   5524 ****        -9.7500  18.7500  67.0000 Du        
   5525 ****        -9.7500  18.7500  67.2500 Du        
   5526 ****        -9.7500  18.7500  67.5000 Du        
   5527 ****        -9.7500  18.7500  67.7500 Du        
   5528 ****        -9.7500  18.7500  68.0000 Du        
   5529 ****        -9.7500  18.7500  68.2500 Du        
   5530 ****        -9.7500  18.7500  68.5000 Du        
   5531 ****        -9.7500  19.0000  66.2500 Du        
   5532 ****        -9.7500  19.0000  66.5000 Du        
   5533 ****        -9.7500  19.0000  66.7500 Du        
   5534 ****        -9.7500  19.0000  67.0000 Du        
   5535 ****        -9.7500  19.0000  67.2500 Du        
   5536 ****        -9.7500  19.0000  67.5000 Du        
   5537 ****        -9.7500  19.0000  67.7500 Du        
   5538 ****        -9.7500  19.0000  68.0000 Du        
   5539 ****        -9.7500  19.0000  68.2500 Du        
   5540 ****        -9.7500  19.0000  68.5000 Du        
   5541 ****        -9.7500  19.2500  66.2500 Du        
   5542 ****        -9.7500  19.2500  66.5000 Du        
   5543 ****        -9.7500  19.2500  66.7500 Du        
   5544 ****        -9.7500  19.2500  67.0000 Du        
   5545 ****        -9.7500  19.2500  67.2500 Du        
   5546 ****        -9.7500  19.2500  67.5000 Du        
   5547 ****        -9.7500  19.2500  67.7500 Du        
   5548 ****        -9.7500  19.2500  68.0000 Du        
   5549 ****        -9.7500  19.2500  68.2500 Du        
   5550 ****        -9.7500  19.2500  68.5000 Du        
   5551 ****        -9.7500  19.5000  66.2500 Du        
   5552 ****        -9.7500  19.5000  66.5000 Du        
   5553 ****        -9.7500  19.5000  66.7500 Du        
   5554 ****        -9.7500  19.5000  67.0000 Du        
   5555 ****        -9.7500  19.5000  67.2500 Du        
   5556 ****        -9.7500  19.5000  67.5000 Du        
   5557 ****        -9.7500  19.5000  67.7500 Du        
   5558 ****        -9.7500  19.5000  68.0000 Du        
   5559 ****        -9.7500  19.5000  68.2500 Du        
   5560 ****        -9.7500  19.5000  68.5000 Du        
   5561 ****        -9.7500  19.5000  68.7500 Du        
   5562 ****        -9.7500  19.7500  66.2500 Du        
   5563 ****        -9.7500  19.7500  66.5000 Du        
   5564 ****        -9.7500  19.7500  66.7500 Du        
   5565 ****        -9.7500  19.7500  67.0000 Du        
   5566 ****        -9.7500  19.7500  67.2500 Du        
   5567 ****        -9.7500  19.7500  67.5000 Du        
   5568 ****        -9.7500  19.7500  67.7500 Du        
   5569 ****        -9.7500  19.7500  68.0000 Du        
   5570 ****        -9.7500  19.7500  68.2500 Du        
   5571 ****        -9.7500  19.7500  68.5000 Du        
   5572 ****        -9.7500  20.0000  66.2500 Du        
   5573 ****        -9.7500  20.0000  66.5000 Du        
   5574 ****        -9.7500  20.0000  66.7500 Du        
   5575 ****        -9.7500  20.0000  67.0000 Du        
   5576 ****        -9.7500  20.0000  67.2500 Du        
   5577 ****        -9.7500  20.0000  67.5000 Du        
   5578 ****        -9.7500  20.0000  67.7500 Du        
   5579 ****        -9.7500  20.0000  68.0000 Du        
   5580 ****        -9.7500  20.0000  68.2500 Du        
   5581 ****        -9.7500  20.2500  66.5000 Du        
   5582 ****        -9.7500  20.2500  66.7500 Du        
   5583 ****        -9.7500  20.2500  67.0000 Du        
   5584 ****        -9.7500  20.2500  67.2500 Du        
   5585 ****        -9.7500  20.2500  67.5000 Du        
   5586 ****        -9.7500  20.2500  67.7500 Du        
   5587 ****        -9.7500  20.2500  68.0000 Du        
   5588 ****        -9.7500  20.5000  67.0000 Du        
   5589 ****        -9.7500  20.5000  67.2500 Du        
   5590 ****        -9.7500  20.5000  67.5000 Du        
   5591 ****        -9.5000  10.5000  62.7500 Du        
   5592 ****        -9.5000  10.5000  63.0000 Du        
   5593 ****        -9.5000  10.5000  63.2500 Du        
   5594 ****        -9.5000  10.7500  62.7500 Du        
   5595 ****        -9.5000  10.7500  63.0000 Du        
   5596 ****        -9.5000  10.7500  63.2500 Du        
   5597 ****        -9.5000  11.0000  62.7500 Du        
   5598 ****        -9.5000  11.0000  63.0000 Du        
   5599 ****        -9.5000  11.0000  63.2500 Du        
   5600 ****        -9.5000  11.0000  63.5000 Du        
   5601 ****        -9.5000  11.2500  63.0000 Du        
   5602 ****        -9.5000  11.2500  63.2500 Du        
   5603 ****        -9.5000  11.5000  63.0000 Du        
   5604 ****        -9.5000  11.5000  63.2500 Du        
   5605 ****        -9.5000  17.5000  66.7500 Du        
   5606 ****        -9.5000  17.5000  67.0000 Du        
   5607 ****        -9.5000  17.5000  67.2500 Du        
   5608 ****        -9.5000  17.7500  66.7500 Du        
   5609 ****        -9.5000  17.7500  67.0000 Du        
   5610 ****        -9.5000  17.7500  67.2500 Du        
   5611 ****        -9.5000  17.7500  67.5000 Du        
   5612 ****        -9.5000  17.7500  67.7500 Du        
   5613 ****        -9.5000  18.0000  66.7500 Du        
   5614 ****        -9.5000  18.0000  67.0000 Du        
   5615 ****        -9.5000  18.0000  67.2500 Du        
   5616 ****        -9.5000  18.0000  67.5000 Du        
   5617 ****        -9.5000  18.0000  67.7500 Du        
   5618 ****        -9.5000  18.2500  66.7500 Du        
   5619 ****        -9.5000  18.2500  67.0000 Du        
   5620 ****        -9.5000  18.2500  67.2500 Du        
   5621 ****        -9.5000  18.2500  67.5000 Du        
   5622 ****        -9.5000  18.2500  67.7500 Du        
   5623 ****        -9.5000  18.2500  68.0000 Du        
   5624 ****        -9.5000  18.5000  66.5000 Du        
   5625 ****        -9.5000  18.5000  66.7500 Du        
   5626 ****        -9.5000  18.5000  67.0000 Du        
   5627 ****        -9.5000  18.5000  67.2500 Du        
   5628 ****        -9.5000  18.5000  67.5000 Du        
   5629 ****        -9.5000  18.5000  67.7500 Du        
   5630 ****        -9.5000  18.5000  68.0000 Du        
   5631 ****        -9.5000  18.5000  68.2500 Du        
   5632 ****        -9.5000  18.7500  66.2500 Du        
   5633 ****        -9.5000  18.7500  66.5000 Du        
   5634 ****        -9.5000  18.7500  66.7500 Du        
   5635 ****        -9.5000  18.7500  67.0000 Du        
   5636 ****        -9.5000  18.7500  67.2500 Du        
   5637 ****        -9.5000  18.7500  67.5000 Du        
   5638 ****        -9.5000  18.7500  67.7500 Du        
   5639 ****        -9.5000  18.7500  68.0000 Du        
   5640 ****        -9.5000  18.7500  68.2500 Du        
   5641 ****        -9.5000  19.0000  66.2500 Du        
   5642 ****        -9.5000  19.0000  66.5000 Du        
   5643 ****        -9.5000  19.0000  66.7500 Du        
   5644 ****        -9.5000  19.0000  67.0000 Du        
   5645 ****        -9.5000  19.0000  67.2500 Du        
   5646 ****        -9.5000  19.0000  67.5000 Du        
   5647 ****        -9.5000  19.0000  67.7500 Du        
   5648 ****        -9.5000  19.0000  68.0000 Du        
   5649 ****        -9.5000  19.0000  68.2500 Du        
   5650 ****        -9.5000  19.0000  68.5000 Du        
   5651 ****        -9.5000  19.2500  66.2500 Du        
   5652 ****        -9.5000  19.2500  66.5000 Du        
   5653 ****        -9.5000  19.2500  66.7500 Du        
   5654 ****        -9.5000  19.2500  67.0000 Du        
   5655 ****        -9.5000  19.2500  67.2500 Du        
   5656 ****        -9.5000  19.2500  67.5000 Du        
   5657 ****        -9.5000  19.2500  67.7500 Du        
   5658 ****        -9.5000  19.2500  68.0000 Du        
   5659 ****        -9.5000  19.2500  68.2500 Du        
   5660 ****        -9.5000  19.2500  68.5000 Du        
   5661 ****        -9.5000  19.5000  66.2500 Du        
   5662 ****        -9.5000  19.5000  66.5000 Du        
   5663 ****        -9.5000  19.5000  66.7500 Du        
   5664 ****        -9.5000  19.5000  67.0000 Du        
   5665 ****        -9.5000  19.5000  67.2500 Du        
   5666 ****        -9.5000  19.5000  67.5000 Du        
   5667 ****        -9.5000  19.5000  67.7500 Du        
   5668 ****        -9.5000  19.5000  68.0000 Du        
   5669 ****        -9.5000  19.5000  68.2500 Du        
   5670 ****        -9.5000  19.5000  68.5000 Du        
   5671 ****        -9.5000  19.7500  66.2500 Du        
   5672 ****        -9.5000  19.7500  66.5000 Du        
   5673 ****        -9.5000  19.7500  66.7500 Du        
   5674 ****        -9.5000  19.7500  67.0000 Du        
   5675 ****        -9.5000  19.7500  67.2500 Du        
   5676 ****        -9.5000  19.7500  67.5000 Du        
   5677 ****        -9.5000  19.7500  67.7500 Du        
   5678 ****        -9.5000  19.7500  68.0000 Du        
   5679 ****        -9.5000  19.7500  68.2500 Du        
   5680 ****        -9.5000  19.7500  68.5000 Du        
   5681 ****        -9.5000  20.0000  66.2500 Du        
   5682 ****        -9.5000  20.0000  66.5000 Du        
   5683 ****        -9.5000  20.0000  66.7500 Du        
   5684 ****        -9.5000  20.0000  67.0000 Du        
   5685 ****        -9.5000  20.0000  67.2500 Du        
   5686 ****        -9.5000  20.0000  67.5000 Du        
   5687 ****        -9.5000  20.0000  67.7500 Du        
   5688 ****        -9.5000  20.0000  68.0000 Du        
   5689 ****        -9.5000  20.0000  68.2500 Du        
   5690 ****        -9.5000  20.2500  66.2500 Du        
   5691 ****        -9.5000  20.2500  66.5000 Du        
   5692 ****        -9.5000  20.2500  66.7500 Du        
   5693 ****        -9.5000  20.2500  67.0000 Du        
   5694 ****        -9.5000  20.2500  67.2500 Du        
   5695 ****        -9.5000  20.2500  67.5000 Du        
   5696 ****        -9.5000  20.2500  67.7500 Du        
   5697 ****        -9.5000  20.2500  68.0000 Du        
   5698 ****        -9.5000  20.5000  66.7500 Du        
   5699 ****        -9.5000  20.5000  67.0000 Du        
   5700 ****        -9.5000  20.5000  67.2500 Du        
   5701 ****        -9.5000  20.5000  67.5000 Du        
   5702 ****        -9.2500  10.0000  62.2500 Du        
   5703 ****        -9.2500  10.2500  62.2500 Du        
   5704 ****        -9.2500  10.5000  62.5000 Du        
   5705 ****        -9.2500  10.5000  62.7500 Du        
   5706 ****        -9.2500  10.5000  63.0000 Du        
   5707 ****        -9.2500  10.7500  62.7500 Du        
   5708 ****        -9.2500  10.7500  63.0000 Du        
   5709 ****        -9.2500  10.7500  63.2500 Du        
   5710 ****        -9.2500  11.0000  62.7500 Du        
   5711 ****        -9.2500  11.0000  63.0000 Du        
   5712 ****        -9.2500  11.0000  63.2500 Du        
   5713 ****        -9.2500  11.2500  63.0000 Du        
   5714 ****        -9.2500  11.2500  63.2500 Du        
   5715 ****        -9.2500  17.5000  67.0000 Du        
   5716 ****        -9.2500  17.5000  67.2500 Du        
   5717 ****        -9.2500  17.7500  66.7500 Du        
   5718 ****        -9.2500  17.7500  67.0000 Du        
   5719 ****        -9.2500  17.7500  67.2500 Du        
   5720 ****        -9.2500  17.7500  67.5000 Du        
   5721 ****        -9.2500  18.0000  66.7500 Du        
   5722 ****        -9.2500  18.0000  67.0000 Du        
   5723 ****        -9.2500  18.0000  67.2500 Du        
   5724 ****        -9.2500  18.0000  67.5000 Du        
   5725 ****        -9.2500  18.0000  67.7500 Du        
   5726 ****        -9.2500  18.2500  66.7500 Du        
   5727 ****        -9.2500  18.2500  67.0000 Du        
   5728 ****        -9.2500  18.2500  67.2500 Du        
   5729 ****        -9.2500  18.2500  67.5000 Du        
   5730 ****        -9.2500  18.2500  67.7500 Du        
   5731 ****        -9.2500  18.5000  66.5000 Du        
   5732 ****        -9.2500  18.5000  66.7500 Du        
   5733 ****        -9.2500  18.5000  67.0000 Du        
   5734 ****        -9.2500  18.5000  67.2500 Du        
   5735 ****        -9.2500  18.5000  67.5000 Du        
   5736 ****        -9.2500  18.5000  67.7500 Du        
   5737 ****        -9.2500  18.5000  68.0000 Du        
   5738 ****        -9.2500  18.7500  66.5000 Du        
   5739 ****        -9.2500  18.7500  66.7500 Du        
   5740 ****        -9.2500  18.7500  67.0000 Du        
   5741 ****        -9.2500  18.7500  67.2500 Du        
   5742 ****        -9.2500  18.7500  67.5000 Du        
   5743 ****        -9.2500  18.7500  67.7500 Du        
   5744 ****        -9.2500  18.7500  68.0000 Du        
   5745 ****        -9.2500  18.7500  68.2500 Du        
   5746 ****        -9.2500  19.0000  66.2500 Du        
   5747 ****        -9.2500  19.0000  66.5000 Du        
   5748 ****        -9.2500  19.0000  66.7500 Du        
   5749 ****        -9.2500  19.0000  67.0000 Du        
   5750 ****        -9.2500  19.0000  67.2500 Du        
   5751 ****        -9.2500  19.0000  67.5000 Du        
   5752 ****        -9.2500  19.0000  67.7500 Du        
   5753 ****        -9.2500  19.0000  68.0000 Du        
   5754 ****        -9.2500  19.0000  68.2500 Du        
   5755 ****        -9.2500  19.0000  68.5000 Du        
   5756 ****        -9.2500  19.2500  66.2500 Du        
   5757 ****        -9.2500  19.2500  66.5000 Du        
   5758 ****        -9.2500  19.2500  66.7500 Du        
   5759 ****        -9.2500  19.2500  67.0000 Du        
   5760 ****        -9.2500  19.2500  67.2500 Du        
   5761 ****        -9.2500  19.2500  67.5000 Du        
   5762 ****        -9.2500  19.2500  67.7500 Du        
   5763 ****        -9.2500  19.2500  68.0000 Du        
   5764 ****        -9.2500  19.2500  68.2500 Du        
   5765 ****        -9.2500  19.2500  68.5000 Du        
   5766 ****        -9.2500  19.5000  66.2500 Du        
   5767 ****        -9.2500  19.5000  66.5000 Du        
   5768 ****        -9.2500  19.5000  66.7500 Du        
   5769 ****        -9.2500  19.5000  67.0000 Du        
   5770 ****        -9.2500  19.5000  67.2500 Du        
   5771 ****        -9.2500  19.5000  67.5000 Du        
   5772 ****        -9.2500  19.5000  67.7500 Du        
   5773 ****        -9.2500  19.5000  68.0000 Du        
   5774 ****        -9.2500  19.5000  68.2500 Du        
   5775 ****        -9.2500  19.5000  68.5000 Du        
   5776 ****        -9.2500  19.7500  66.2500 Du        
   5777 ****        -9.2500  19.7500  66.5000 Du        
   5778 ****        -9.2500  19.7500  66.7500 Du        
   5779 ****        -9.2500  19.7500  67.0000 Du        
   5780 ****        -9.2500  19.7500  67.2500 Du        
   5781 ****        -9.2500  19.7500  67.5000 Du        
   5782 ****        -9.2500  19.7500  67.7500 Du        
   5783 ****        -9.2500  19.7500  68.0000 Du        
   5784 ****        -9.2500  19.7500  68.2500 Du        
   5785 ****        -9.2500  20.0000  66.2500 Du        
   5786 ****        -9.2500  20.0000  66.5000 Du        
   5787 ****        -9.2500  20.0000  66.7500 Du        
   5788 ****        -9.2500  20.0000  67.0000 Du        
   5789 ****        -9.2500  20.0000  67.2500 Du        
   5790 ****        -9.2500  20.0000  67.5000 Du        
   5791 ****        -9.2500  20.0000  67.7500 Du        
   5792 ****        -9.2500  20.0000  68.0000 Du        
   5793 ****        -9.2500  20.2500  66.2500 Du        
   5794 ****        -9.2500  20.2500  66.5000 Du        
   5795 ****        -9.2500  20.2500  66.7500 Du        
   5796 ****        -9.2500  20.2500  67.0000 Du        
   5797 ****        -9.2500  20.2500  67.2500 Du        
   5798 ****        -9.2500  20.2500  67.5000 Du        
   5799 ****        -9.2500  20.2500  67.7500 Du        
   5800 ****        -9.2500  20.5000  66.7500 Du        
   5801 ****        -9.2500  20.5000  67.0000 Du        
   5802 ****        -9.2500  20.5000  67.2500 Du        
   5803 ****        -9.2500  20.5000  67.5000 Du        
   5804 ****        -9.2500  20.7500  67.0000 Du        
   5805 ****        -9.2500  20.7500  67.2500 Du        
   5806 ****        -9.0000  10.2500  62.2500 Du        
   5807 ****        -9.0000  10.5000  62.2500 Du        
   5808 ****        -9.0000  10.5000  62.5000 Du        
   5809 ****        -9.0000  10.5000  62.7500 Du        
   5810 ****        -9.0000  10.5000  63.0000 Du        
   5811 ****        -9.0000  10.7500  62.5000 Du        
   5812 ****        -9.0000  10.7500  62.7500 Du        
   5813 ****        -9.0000  10.7500  63.0000 Du        
   5814 ****        -9.0000  11.0000  62.7500 Du        
   5815 ****        -9.0000  11.0000  63.0000 Du        
   5816 ****        -9.0000  11.0000  63.2500 Du        
   5817 ****        -9.0000  17.7500  67.0000 Du        
   5818 ****        -9.0000  17.7500  67.2500 Du        
   5819 ****        -9.0000  18.0000  66.7500 Du        
   5820 ****        -9.0000  18.0000  67.0000 Du        
   5821 ****        -9.0000  18.0000  67.2500 Du        
   5822 ****        -9.0000  18.2500  66.7500 Du        
   5823 ****        -9.0000  18.2500  67.0000 Du        
   5824 ****        -9.0000  18.2500  67.2500 Du        
   5825 ****        -9.0000  18.2500  67.7500 Du        
   5826 ****        -9.0000  18.5000  66.7500 Du        
   5827 ****        -9.0000  18.5000  67.0000 Du        
   5828 ****        -9.0000  18.5000  67.2500 Du        
   5829 ****        -9.0000  18.5000  67.5000 Du        
   5830 ****        -9.0000  18.5000  67.7500 Du        
   5831 ****        -9.0000  18.5000  68.0000 Du        
   5832 ****        -9.0000  18.7500  66.5000 Du        
   5833 ****        -9.0000  18.7500  66.7500 Du        
   5834 ****        -9.0000  18.7500  67.0000 Du        
   5835 ****        -9.0000  18.7500  67.2500 Du        
   5836 ****        -9.0000  18.7500  67.5000 Du        
   5837 ****        -9.0000  18.7500  67.7500 Du        
   5838 ****        -9.0000  18.7500  68.0000 Du        
   5839 ****        -9.0000  18.7500  68.2500 Du        
   5840 ****        -9.0000  19.0000  66.2500 Du        
   5841 ****        -9.0000  19.0000  66.5000 Du        
   5842 ****        -9.0000  19.0000  66.7500 Du        
   5843 ****        -9.0000  19.0000  67.0000 Du        
   5844 ****        -9.0000  19.0000  67.2500 Du        
   5845 ****        -9.0000  19.0000  67.5000 Du        
   5846 ****        -9.0000  19.0000  67.7500 Du        
   5847 ****        -9.0000  19.0000  68.0000 Du        
   5848 ****        -9.0000  19.0000  68.2500 Du        
   5849 ****        -9.0000  19.2500  66.2500 Du        
   5850 ****        -9.0000  19.2500  66.5000 Du        
   5851 ****        -9.0000  19.2500  66.7500 Du        
   5852 ****        -9.0000  19.2500  67.0000 Du        
   5853 ****        -9.0000  19.2500  67.2500 Du        
   5854 ****        -9.0000  19.2500  67.5000 Du        
   5855 ****        -9.0000  19.2500  67.7500 Du        
   5856 ****        -9.0000  19.2500  68.0000 Du        
   5857 ****        -9.0000  19.2500  68.2500 Du        
   5858 ****        -9.0000  19.5000  66.2500 Du        
   5859 ****        -9.0000  19.5000  66.5000 Du        
   5860 ****        -9.0000  19.5000  66.7500 Du        
   5861 ****        -9.0000  19.5000  67.0000 Du        
   5862 ****        -9.0000  19.5000  67.2500 Du        
   5863 ****        -9.0000  19.5000  67.5000 Du        
   5864 ****        -9.0000  19.5000  67.7500 Du        
   5865 ****        -9.0000  19.5000  68.0000 Du        
   5866 ****        -9.0000  19.5000  68.2500 Du        
   5867 ****        -9.0000  19.7500  66.2500 Du        
   5868 ****        -9.0000  19.7500  66.5000 Du        
   5869 ****        -9.0000  19.7500  66.7500 Du        
   5870 ****        -9.0000  19.7500  67.0000 Du        
   5871 ****        -9.0000  19.7500  67.2500 Du        
   5872 ****        -9.0000  19.7500  67.5000 Du        
   5873 ****        -9.0000  19.7500  67.7500 Du        
   5874 ****        -9.0000  19.7500  68.0000 Du        
   5875 ****        -9.0000  19.7500  68.2500 Du        
   5876 ****        -9.0000  20.0000  66.2500 Du        
   5877 ****        -9.0000  20.0000  66.5000 Du        
   5878 ****        -9.0000  20.0000  66.7500 Du        
   5879 ****        -9.0000  20.0000  67.0000 Du        
   5880 ****        -9.0000  20.0000  67.2500 Du        
   5881 ****        -9.0000  20.0000  67.5000 Du        
   5882 ****        -9.0000  20.0000  67.7500 Du        
   5883 ****        -9.0000  20.0000  68.0000 Du        
   5884 ****        -9.0000  20.2500  66.2500 Du        
   5885 ****        -9.0000  20.2500  66.5000 Du        
   5886 ****        -9.0000  20.2500  66.7500 Du        
   5887 ****        -9.0000  20.2500  67.0000 Du        
   5888 ****        -9.0000  20.2500  67.2500 Du        
   5889 ****        -9.0000  20.2500  67.5000 Du        
   5890 ****        -9.0000  20.2500  67.7500 Du        
   5891 ****        -9.0000  20.5000  66.5000 Du        
   5892 ****        -9.0000  20.5000  66.7500 Du        
   5893 ****        -9.0000  20.5000  67.0000 Du        
   5894 ****        -9.0000  20.5000  67.2500 Du        
   5895 ****        -9.0000  20.5000  67.5000 Du        
   5896 ****        -9.0000  20.7500  67.0000 Du        
   5897 ****        -9.0000  20.7500  67.2500 Du        
   5898 ****        -8.7500  10.5000  62.5000 Du        
   5899 ****        -8.7500  10.7500  62.7500 Du        
   5900 ****        -8.7500  18.0000  67.0000 Du        
   5901 ****        -8.7500  18.0000  67.2500 Du        
   5902 ****        -8.7500  18.2500  66.7500 Du        
   5903 ****        -8.7500  18.2500  67.0000 Du        
   5904 ****        -8.7500  18.2500  67.2500 Du        
   5905 ****        -8.7500  18.5000  66.7500 Du        
   5906 ****        -8.7500  18.5000  67.0000 Du        
   5907 ****        -8.7500  18.5000  67.2500 Du        
   5908 ****        -8.7500  18.7500  66.5000 Du        
   5909 ****        -8.7500  18.7500  66.7500 Du        
   5910 ****        -8.7500  18.7500  67.0000 Du        
   5911 ****        -8.7500  18.7500  67.2500 Du        
   5912 ****        -8.7500  18.7500  67.5000 Du        
   5913 ****        -8.7500  18.7500  67.7500 Du        
   5914 ****        -8.7500  18.7500  68.0000 Du        
   5915 ****        -8.7500  19.0000  66.2500 Du        
   5916 ****        -8.7500  19.0000  66.5000 Du        
   5917 ****        -8.7500  19.0000  66.7500 Du        
   5918 ****        -8.7500  19.0000  67.0000 Du        
   5919 ****        -8.7500  19.0000  67.2500 Du        
   5920 ****        -8.7500  19.0000  67.5000 Du        
   5921 ****        -8.7500  19.0000  67.7500 Du        
   5922 ****        -8.7500  19.0000  68.0000 Du        
   5923 ****        -8.7500  19.0000  68.2500 Du        
   5924 ****        -8.7500  19.2500  66.2500 Du        
   5925 ****        -8.7500  19.2500  66.5000 Du        
   5926 ****        -8.7500  19.2500  66.7500 Du        
   5927 ****        -8.7500  19.2500  67.0000 Du        
   5928 ****        -8.7500  19.2500  67.2500 Du        
   5929 ****        -8.7500  19.2500  67.5000 Du        
   5930 ****        -8.7500  19.2500  67.7500 Du        
   5931 ****        -8.7500  19.2500  68.0000 Du        
   5932 ****        -8.7500  19.2500  68.2500 Du        
   5933 ****        -8.7500  19.5000  66.2500 Du        
   5934 ****        -8.7500  19.5000  66.5000 Du        
   5935 ****        -8.7500  19.5000  66.7500 Du        
   5936 ****        -8.7500  19.5000  67.0000 Du        
   5937 ****        -8.7500  19.5000  67.2500 Du        
   5938 ****        -8.7500  19.5000  67.5000 Du        
   5939 ****        -8.7500  19.5000  67.7500 Du        
   5940 ****        -8.7500  19.5000  68.0000 Du        
   5941 ****        -8.7500  19.5000  68.2500 Du        
   5942 ****        -8.7500  19.7500  66.2500 Du        
   5943 ****        -8.7500  19.7500  66.5000 Du        
   5944 ****        -8.7500  19.7500  66.7500 Du        
   5945 ****        -8.7500  19.7500  67.0000 Du        
   5946 ****        -8.7500  19.7500  67.2500 Du        
   5947 ****        -8.7500  19.7500  67.5000 Du        
   5948 ****        -8.7500  19.7500  67.7500 Du        
   5949 ****        -8.7500  19.7500  68.0000 Du        
   5950 ****        -8.7500  20.0000  66.2500 Du        
   5951 ****        -8.7500  20.0000  66.5000 Du        
   5952 ****        -8.7500  20.0000  66.7500 Du        
   5953 ****        -8.7500  20.0000  67.0000 Du        
   5954 ****        -8.7500  20.0000  67.2500 Du        
   5955 ****        -8.7500  20.0000  67.5000 Du        
   5956 ****        -8.7500  20.0000  67.7500 Du        
   5957 ****        -8.7500  20.2500  66.2500 Du        
   5958 ****        -8.7500  20.2500  66.5000 Du        
   5959 ****        -8.7500  20.2500  66.7500 Du        
   5960 ****        -8.7500  20.2500  67.0000 Du        
   5961 ****        -8.7500  20.2500  67.2500 Du        
   5962 ****        -8.7500  20.2500  67.5000 Du        
   5963 ****        -8.7500  20.5000  66.7500 Du        
   5964 ****        -8.7500  20.5000  67.0000 Du        
   5965 ****        -8.7500  20.5000  67.2500 Du        
   5966 ****        -8.7500  20.7500  67.0000 Du        
   5967 ****        -8.7500  22.7500  62.0000 Du        
   5968 ****        -8.7500  22.7500  62.2500 Du        
   5969 ****        -8.5000  18.5000  66.7500 Du        
   5970 ****        -8.5000  18.5000  67.0000 Du        
   5971 ****        -8.5000  18.5000  67.2500 Du        
   5972 ****        -8.5000  18.7500  66.7500 Du        
   5973 ****        -8.5000  18.7500  67.0000 Du        
   5974 ****        -8.5000  18.7500  67.2500 Du        
   5975 ****        -8.5000  19.0000  66.5000 Du        
   5976 ****        -8.5000  19.0000  66.7500 Du        
   5977 ****        -8.5000  19.0000  67.0000 Du        
   5978 ****        -8.5000  19.0000  67.2500 Du        
   5979 ****        -8.5000  19.0000  67.5000 Du        
   5980 ****        -8.5000  19.0000  67.7500 Du        
   5981 ****        -8.5000  19.2500  66.5000 Du        
   5982 ****        -8.5000  19.2500  66.7500 Du        
   5983 ****        -8.5000  19.2500  67.0000 Du        
   5984 ****        -8.5000  19.2500  67.2500 Du        
   5985 ****        -8.5000  19.2500  67.5000 Du        
   5986 ****        -8.5000  19.2500  67.7500 Du        
   5987 ****        -8.5000  19.5000  66.2500 Du        
   5988 ****        -8.5000  19.5000  66.5000 Du        
   5989 ****        -8.5000  19.5000  66.7500 Du        
   5990 ****        -8.5000  19.5000  67.0000 Du        
   5991 ****        -8.5000  19.5000  67.2500 Du        
   5992 ****        -8.5000  19.5000  67.5000 Du        
   5993 ****        -8.5000  19.5000  67.7500 Du        
   5994 ****        -8.5000  19.7500  66.2500 Du        
   5995 ****        -8.5000  19.7500  66.5000 Du        
   5996 ****        -8.5000  19.7500  66.7500 Du        
   5997 ****        -8.5000  19.7500  67.0000 Du        
   5998 ****        -8.5000  19.7500  67.2500 Du        
   5999 ****        -8.5000  19.7500  67.5000 Du        
   6000 ****        -8.5000  19.7500  67.7500 Du        
   6001 ****        -8.5000  20.0000  66.2500 Du        
   6002 ****        -8.5000  20.0000  66.5000 Du        
   6003 ****        -8.5000  20.0000  66.7500 Du        
   6004 ****        -8.5000  20.0000  67.0000 Du        
   6005 ****        -8.5000  20.0000  67.2500 Du        
   6006 ****        -8.5000  20.0000  67.5000 Du        
   6007 ****        -8.5000  20.2500  66.5000 Du        
   6008 ****        -8.5000  20.2500  66.7500 Du        
   6009 ****        -8.5000  20.2500  67.0000 Du        
   6010 ****        -8.5000  20.2500  67.2500 Du        
   6011 ****        -8.5000  20.5000  66.7500 Du        
   6012 ****        -8.5000  20.5000  67.0000 Du        
   6013 ****        -8.5000  20.5000  67.2500 Du        
   6014 ****        -8.5000  22.5000  62.0000 Du        
   6015 ****        -8.5000  22.7500  62.0000 Du        
   6016 ****        -8.5000  22.7500  62.2500 Du        
   6017 ****        -8.2500  18.5000  67.0000 Du        
   6018 ****        -8.2500  18.5000  67.2500 Du        
   6019 ****        -8.2500  18.7500  66.5000 Du        
   6020 ****        -8.2500  18.7500  66.7500 Du        
   6021 ****        -8.2500  18.7500  67.0000 Du        
   6022 ****        -8.2500  18.7500  67.2500 Du        
   6023 ****        -8.2500  19.0000  66.5000 Du        
   6024 ****        -8.2500  19.0000  66.7500 Du        
   6025 ****        -8.2500  19.0000  67.0000 Du        
   6026 ****        -8.2500  19.0000  67.2500 Du        
   6027 ****        -8.2500  19.0000  67.5000 Du        
   6028 ****        -8.2500  19.0000  67.7500 Du        
   6029 ****        -8.2500  19.2500  66.2500 Du        
   6030 ****        -8.2500  19.2500  66.5000 Du        
   6031 ****        -8.2500  19.2500  66.7500 Du        
   6032 ****        -8.2500  19.2500  67.0000 Du        
   6033 ****        -8.2500  19.2500  67.2500 Du        
   6034 ****        -8.2500  19.2500  67.5000 Du        
   6035 ****        -8.2500  19.2500  67.7500 Du        
   6036 ****        -8.2500  19.5000  66.2500 Du        
   6037 ****        -8.2500  19.5000  66.5000 Du        
   6038 ****        -8.2500  19.5000  66.7500 Du        
   6039 ****        -8.2500  19.5000  67.0000 Du        
   6040 ****        -8.2500  19.5000  67.2500 Du        
   6041 ****        -8.2500  19.5000  67.5000 Du        
   6042 ****        -8.2500  19.5000  67.7500 Du        
   6043 ****        -8.2500  19.7500  66.2500 Du        
   6044 ****        -8.2500  19.7500  66.5000 Du        
   6045 ****        -8.2500  19.7500  66.7500 Du        
   6046 ****        -8.2500  19.7500  67.0000 Du        
   6047 ****        -8.2500  19.7500  67.2500 Du        
   6048 ****        -8.2500  19.7500  67.5000 Du        
   6049 ****        -8.2500  19.7500  67.7500 Du        
   6050 ****        -8.2500  20.0000  66.2500 Du        
   6051 ****        -8.2500  20.0000  66.5000 Du        
   6052 ****        -8.2500  20.0000  66.7500 Du        
   6053 ****        -8.2500  20.0000  67.0000 Du        
   6054 ****        -8.2500  20.0000  67.2500 Du        
   6055 ****        -8.2500  20.0000  67.5000 Du        
   6056 ****        -8.2500  20.2500  66.2500 Du        
   6057 ****        -8.2500  20.2500  66.5000 Du        
   6058 ****        -8.2500  20.2500  66.7500 Du        
   6059 ****        -8.2500  20.2500  67.0000 Du        
   6060 ****        -8.2500  20.2500  67.2500 Du        
   6061 ****        -8.2500  20.5000  66.7500 Du        
   6062 ****        -8.2500  20.5000  67.0000 Du        
   6063 ****        -8.2500  20.5000  67.2500 Du        
   6064 ****        -8.2500  22.5000  61.7500 Du        
   6065 ****        -8.2500  22.5000  62.0000 Du        
   6066 ****        -8.2500  22.5000  62.2500 Du        
   6067 ****        -8.2500  22.7500  62.0000 Du        
   6068 ****        -8.2500  22.7500  62.2500 Du        
   6069 ****        -8.0000  18.5000  67.0000 Du        
   6070 ****        -8.0000  18.5000  67.2500 Du        
   6071 ****        -8.0000  18.7500  66.7500 Du        
   6072 ****        -8.0000  18.7500  67.0000 Du        
   6073 ****        -8.0000  18.7500  67.2500 Du        
   6074 ****        -8.0000  19.0000  66.2500 Du        
   6075 ****        -8.0000  19.0000  66.5000 Du        
   6076 ****        -8.0000  19.0000  66.7500 Du        
   6077 ****        -8.0000  19.0000  67.0000 Du        
   6078 ****        -8.0000  19.0000  67.2500 Du        
   6079 ****        -8.0000  19.2500  66.2500 Du        
   6080 ****        -8.0000  19.2500  66.5000 Du        
   6081 ****        -8.0000  19.2500  66.7500 Du        
   6082 ****        -8.0000  19.2500  67.0000 Du        
   6083 ****        -8.0000  19.2500  67.2500 Du        
   6084 ****        -8.0000  19.2500  67.5000 Du        
   6085 ****        -8.0000  19.5000  66.2500 Du        
   6086 ****        -8.0000  19.5000  66.5000 Du        
   6087 ****        -8.0000  19.5000  66.7500 Du        
   6088 ****        -8.0000  19.5000  67.0000 Du        
   6089 ****        -8.0000  19.5000  67.2500 Du        
   6090 ****        -8.0000  19.5000  67.5000 Du        
   6091 ****        -8.0000  19.7500  66.0000 Du        
   6092 ****        -8.0000  19.7500  66.2500 Du        
   6093 ****        -8.0000  19.7500  66.5000 Du        
   6094 ****        -8.0000  19.7500  66.7500 Du        
   6095 ****        -8.0000  19.7500  67.0000 Du        
   6096 ****        -8.0000  19.7500  67.2500 Du        
   6097 ****        -8.0000  19.7500  67.5000 Du        
   6098 ****        -8.0000  20.0000  66.0000 Du        
   6099 ****        -8.0000  20.0000  66.2500 Du        
   6100 ****        -8.0000  20.0000  66.5000 Du        
   6101 ****        -8.0000  20.0000  66.7500 Du        
   6102 ****        -8.0000  20.0000  67.0000 Du        
   6103 ****        -8.0000  20.0000  67.2500 Du        
   6104 ****        -8.0000  20.0000  67.5000 Du        
   6105 ****        -8.0000  20.2500  66.2500 Du        
   6106 ****        -8.0000  20.2500  66.5000 Du        
   6107 ****        -8.0000  20.2500  66.7500 Du        
   6108 ****        -8.0000  20.2500  67.0000 Du        
   6109 ****        -8.0000  20.2500  67.2500 Du        
   6110 ****        -8.0000  20.5000  66.7500 Du        
   6111 ****        -8.0000  20.5000  67.0000 Du        
   6112 ****        -8.0000  20.5000  67.2500 Du        
   6113 ****        -8.0000  22.5000  61.7500 Du        
   6114 ****        -8.0000  22.5000  62.0000 Du        
   6115 ****        -8.0000  22.7500  62.0000 Du        
   6116 ****        -7.7500  19.0000  66.7500 Du        
   6117 ****        -7.7500  19.0000  67.0000 Du        
   6118 ****        -7.7500  19.0000  67.2500 Du        
   6119 ****        -7.7500  19.2500  66.2500 Du        
   6120 ****        -7.7500  19.2500  66.5000 Du        
   6121 ****        -7.7500  19.2500  66.7500 Du        
   6122 ****        -7.7500  19.2500  67.0000 Du        
   6123 ****        -7.7500  19.2500  67.2500 Du        
   6124 ****        -7.7500  19.5000  66.0000 Du        
   6125 ****        -7.7500  19.5000  66.2500 Du        
   6126 ****        -7.7500  19.5000  66.5000 Du        
   6127 ****        -7.7500  19.5000  66.7500 Du        
   6128 ****        -7.7500  19.5000  67.0000 Du        
   6129 ****        -7.7500  19.5000  67.2500 Du        
   6130 ****        -7.7500  19.7500  66.0000 Du        
   6131 ****        -7.7500  19.7500  66.2500 Du        
   6132 ****        -7.7500  19.7500  66.5000 Du        
   6133 ****        -7.7500  19.7500  66.7500 Du        
   6134 ****        -7.7500  19.7500  67.0000 Du        
   6135 ****        -7.7500  19.7500  67.2500 Du        
   6136 ****        -7.7500  19.7500  67.5000 Du        
   6137 ****        -7.7500  20.0000  66.0000 Du        
   6138 ****        -7.7500  20.0000  66.2500 Du        
   6139 ****        -7.7500  20.0000  66.5000 Du        
   6140 ****        -7.7500  20.0000  66.7500 Du        
   6141 ****        -7.7500  20.0000  67.0000 Du        
   6142 ****        -7.7500  20.0000  67.2500 Du        
   6143 ****        -7.7500  20.0000  67.5000 Du        
   6144 ****        -7.7500  20.2500  66.0000 Du        
   6145 ****        -7.7500  20.2500  66.2500 Du        
   6146 ****        -7.7500  20.2500  66.5000 Du        
   6147 ****        -7.7500  20.2500  66.7500 Du        
   6148 ****        -7.7500  20.2500  67.0000 Du        
   6149 ****        -7.7500  20.2500  67.2500 Du        
   6150 ****        -7.7500  20.5000  66.5000 Du        
   6151 ****        -7.7500  20.5000  66.7500 Du        
   6152 ****        -7.7500  20.5000  67.0000 Du        
   6153 ****        -7.5000  19.5000  66.0000 Du        
   6154 ****        -7.5000  19.5000  66.2500 Du        
   6155 ****        -7.5000  19.5000  66.5000 Du        
   6156 ****        -7.5000  19.5000  66.7500 Du        
   6157 ****        -7.5000  19.7500  66.0000 Du        
   6158 ****        -7.5000  19.7500  66.2500 Du        
   6159 ****        -7.5000  19.7500  66.5000 Du        
   6160 ****        -7.5000  19.7500  66.7500 Du        
   6161 ****        -7.5000  19.7500  67.0000 Du        
   6162 ****        -7.5000  19.7500  67.2500 Du        
   6163 ****        -7.5000  20.0000  66.0000 Du        
   6164 ****        -7.5000  20.0000  66.2500 Du        
   6165 ****        -7.5000  20.0000  66.5000 Du        
   6166 ****        -7.5000  20.0000  66.7500 Du        
   6167 ****        -7.5000  20.0000  67.0000 Du        
   6168 ****        -7.5000  20.0000  67.2500 Du        
   6169 ****        -7.5000  20.2500  66.0000 Du        
   6170 ****        -7.5000  20.2500  66.2500 Du        
   6171 ****        -7.5000  20.2500  66.5000 Du        
   6172 ****        -7.5000  20.2500  66.7500 Du        
   6173 ****        -7.5000  20.2500  67.0000 Du        
   6174 ****        -7.5000  20.5000  66.2500 Du        
   6175 ****        -7.5000  20.5000  66.7500 Du        
   6176 ****        -7.5000  20.5000  67.0000 Du        
   6177 ****        -7.2500  19.5000  66.0000 Du        
   6178 ****        -7.2500  19.5000  66.2500 Du        
   6179 ****        -7.2500  19.7500  65.7500 Du        
   6180 ****        -7.2500  19.7500  66.0000 Du        
   6181 ****        -7.2500  19.7500  66.2500 Du        
   6182 ****        -7.2500  19.7500  66.5000 Du        
   6183 ****        -7.2500  19.7500  66.7500 Du        
   6184 ****        -7.2500  19.7500  67.0000 Du        
   6185 ****        -7.2500  20.0000  65.7500 Du        
   6186 ****        -7.2500  20.0000  66.0000 Du        
   6187 ****        -7.2500  20.0000  66.2500 Du        
   6188 ****        -7.2500  20.0000  66.5000 Du        
   6189 ****        -7.2500  20.0000  66.7500 Du        
   6190 ****        -7.2500  20.0000  67.0000 Du        
   6191 ****        -7.2500  20.0000  67.2500 Du        
   6192 ****        -7.2500  20.2500  65.7500 Du        
   6193 ****        -7.2500  20.2500  66.0000 Du        
   6194 ****        -7.2500  20.2500  66.2500 Du        
   6195 ****        -7.2500  20.2500  66.5000 Du        
   6196 ****        -7.2500  20.2500  66.7500 Du        
   6197 ****        -7.2500  20.2500  67.0000 Du        
   6198 ****        -7.2500  20.5000  66.0000 Du        
   6199 ****        -7.2500  20.5000  66.2500 Du        
   6200 ****        -7.2500  20.5000  66.5000 Du        
   6201 ****        -7.2500  20.5000  66.7500 Du        
   6202 ****        -7.2500  20.5000  67.0000 Du        
   6203 ****        -7.0000  19.5000  66.2500 Du        
   6204 ****        -7.0000  19.7500  65.7500 Du        
   6205 ****        -7.0000  19.7500  66.0000 Du        
   6206 ****        -7.0000  19.7500  66.2500 Du        
   6207 ****        -7.0000  19.7500  66.5000 Du        
   6208 ****        -7.0000  20.0000  65.5000 Du        
   6209 ****        -7.0000  20.0000  65.7500 Du        
   6210 ****        -7.0000  20.0000  66.0000 Du        
   6211 ****        -7.0000  20.0000  66.2500 Du        
   6212 ****        -7.0000  20.0000  66.5000 Du        
   6213 ****        -7.0000  20.0000  66.7500 Du        
   6214 ****        -7.0000  20.0000  67.0000 Du        
   6215 ****        -7.0000  20.0000  67.2500 Du        
   6216 ****        -7.0000  20.2500  65.5000 Du        
   6217 ****        -7.0000  20.2500  65.7500 Du        
   6218 ****        -7.0000  20.2500  66.0000 Du        
   6219 ****        -7.0000  20.2500  66.2500 Du        
   6220 ****        -7.0000  20.2500  66.5000 Du        
   6221 ****        -7.0000  20.2500  66.7500 Du        
   6222 ****        -7.0000  20.2500  67.0000 Du        
   6223 ****        -7.0000  20.5000  66.0000 Du        
   6224 ****        -7.0000  20.5000  66.2500 Du        
   6225 ****        -7.0000  20.5000  66.7500 Du        
   6226 ****        -6.7500  12.0000  76.5000 Du        
   6227 ****        -6.7500  12.2500  76.5000 Du        
   6228 ****        -6.7500  12.2500  76.7500 Du        
   6229 ****        -6.7500  12.5000  76.2500 Du        
   6230 ****        -6.7500  12.5000  76.5000 Du        
   6231 ****        -6.7500  12.5000  76.7500 Du        
   6232 ****        -6.7500  12.7500  76.2500 Du        
   6233 ****        -6.7500  12.7500  76.5000 Du        
   6234 ****        -6.7500  12.7500  76.7500 Du        
   6235 ****        -6.7500  19.7500  65.2500 Du        
   6236 ****        -6.7500  19.7500  65.5000 Du        
   6237 ****        -6.7500  19.7500  66.0000 Du        
   6238 ****        -6.7500  19.7500  66.2500 Du        
   6239 ****        -6.7500  20.0000  65.2500 Du        
   6240 ****        -6.7500  20.0000  65.5000 Du        
   6241 ****        -6.7500  20.0000  65.7500 Du        
   6242 ****        -6.7500  20.0000  66.0000 Du        
   6243 ****        -6.7500  20.0000  66.2500 Du        
   6244 ****        -6.7500  20.0000  66.5000 Du        
   6245 ****        -6.7500  20.0000  66.7500 Du        
   6246 ****        -6.7500  20.2500  65.2500 Du        
   6247 ****        -6.7500  20.2500  65.5000 Du        
   6248 ****        -6.7500  20.2500  65.7500 Du        
   6249 ****        -6.7500  20.2500  66.0000 Du        
   6250 ****        -6.7500  20.2500  66.2500 Du        
   6251 ****        -6.7500  20.2500  66.5000 Du        
   6252 ****        -6.7500  20.2500  66.7500 Du        
   6253 ****        -6.7500  20.2500  67.0000 Du        
   6254 ****        -6.7500  20.5000  65.7500 Du        
   6255 ****        -6.7500  20.5000  66.0000 Du        
   6256 ****        -6.7500  20.5000  66.2500 Du        
   6257 ****        -6.5000  11.7500  76.5000 Du        
   6258 ****        -6.5000  11.7500  76.7500 Du        
   6259 ****        -6.5000  12.0000  76.5000 Du        
   6260 ****        -6.5000  12.0000  76.7500 Du        
   6261 ****        -6.5000  12.2500  76.2500 Du        
   6262 ****        -6.5000  12.2500  76.5000 Du        
   6263 ****        -6.5000  12.2500  76.7500 Du        
   6264 ****        -6.5000  12.5000  76.2500 Du        
   6265 ****        -6.5000  12.5000  76.5000 Du        
   6266 ****        -6.5000  12.5000  76.7500 Du        
   6267 ****        -6.5000  12.7500  76.0000 Du        
   6268 ****        -6.5000  12.7500  76.2500 Du        
   6269 ****        -6.5000  12.7500  76.5000 Du        
   6270 ****        -6.5000  12.7500  76.7500 Du        
   6271 ****        -6.5000  13.0000  76.5000 Du        
   6272 ****        -6.5000  13.0000  76.7500 Du        
   6273 ****        -6.5000  19.7500  66.0000 Du        
   6274 ****        -6.5000  20.0000  65.5000 Du        
   6275 ****        -6.5000  20.0000  65.7500 Du        
   6276 ****        -6.5000  20.0000  66.0000 Du        
   6277 ****        -6.2500  11.7500  76.2500 Du        
   6278 ****        -6.2500  11.7500  76.5000 Du        
   6279 ****        -6.2500  11.7500  76.7500 Du        
   6280 ****        -6.2500  12.0000  76.2500 Du        
   6281 ****        -6.2500  12.0000  76.5000 Du        
   6282 ****        -6.2500  12.0000  76.7500 Du        
   6283 ****        -6.2500  12.0000  77.0000 Du        
   6284 ****        -6.2500  12.2500  76.0000 Du        
   6285 ****        -6.2500  12.2500  76.2500 Du        
   6286 ****        -6.2500  12.2500  76.5000 Du        
   6287 ****        -6.2500  12.2500  76.7500 Du        
   6288 ****        -6.2500  12.2500  77.0000 Du        
   6289 ****        -6.2500  12.5000  76.0000 Du        
   6290 ****        -6.2500  12.5000  76.2500 Du        
   6291 ****        -6.2500  12.5000  76.5000 Du        
   6292 ****        -6.2500  12.5000  76.7500 Du        
   6293 ****        -6.2500  12.5000  77.0000 Du        
   6294 ****        -6.2500  12.7500  76.0000 Du        
   6295 ****        -6.2500  12.7500  76.2500 Du        
   6296 ****        -6.2500  12.7500  76.5000 Du        
   6297 ****        -6.2500  12.7500  76.7500 Du        
   6298 ****        -6.2500  12.7500  77.0000 Du        
   6299 ****        -6.2500  13.0000  76.0000 Du        
   6300 ****        -6.2500  13.0000  76.2500 Du        
   6301 ****        -6.2500  13.0000  76.5000 Du        
   6302 ****        -6.2500  13.0000  76.7500 Du        
   6303 ****        -6.2500  13.0000  77.0000 Du        
   6304 ****        -6.2500  20.0000  66.0000 Du        
   6305 ****        -6.0000  11.7500  76.2500 Du        
   6306 ****        -6.0000  11.7500  76.5000 Du        
   6307 ****        -6.0000  11.7500  76.7500 Du        
   6308 ****        -6.0000  11.7500  77.0000 Du        
   6309 ****        -6.0000  12.0000  76.0000 Du        
   6310 ****        -6.0000  12.0000  76.2500 Du        
   6311 ****        -6.0000  12.0000  76.5000 Du        
   6312 ****        -6.0000  12.0000  76.7500 Du        
   6313 ****        -6.0000  12.0000  77.0000 Du        
   6314 ****        -6.0000  12.2500  76.0000 Du        
   6315 ****        -6.0000  12.2500  76.2500 Du        
   6316 ****        -6.0000  12.2500  76.5000 Du        
   6317 ****        -6.0000  12.2500  76.7500 Du        
   6318 ****        -6.0000  12.2500  77.0000 Du        
   6319 ****        -6.0000  12.5000  75.7500 Du        
   6320 ****        -6.0000  12.5000  76.0000 Du        
   6321 ****        -6.0000  12.5000  76.2500 Du        
   6322 ****        -6.0000  12.5000  76.5000 Du        
   6323 ****        -6.0000  12.5000  76.7500 Du        
   6324 ****        -6.0000  12.5000  77.0000 Du        
   6325 ****        -6.0000  12.7500  75.7500 Du        
   6326 ****        -6.0000  12.7500  76.0000 Du        
   6327 ****        -6.0000  12.7500  76.2500 Du        
   6328 ****        -6.0000  12.7500  76.5000 Du        
   6329 ****        -6.0000  12.7500  76.7500 Du        
   6330 ****        -6.0000  12.7500  77.0000 Du        
   6331 ****        -6.0000  13.0000  75.7500 Du        
   6332 ****        -6.0000  13.0000  76.0000 Du        
   6333 ****        -6.0000  13.0000  76.2500 Du        
   6334 ****        -6.0000  13.0000  76.5000 Du        
   6335 ****        -6.0000  13.0000  76.7500 Du        
   6336 ****        -6.0000  13.0000  77.0000 Du        
   6337 ****        -6.0000  19.7500  70.2500 Du        
   6338 ****        -6.0000  19.7500  70.5000 Du        
   6339 ****        -6.0000  19.7500  70.7500 Du        
   6340 ****        -6.0000  19.7500  71.0000 Du        
   6341 ****        -6.0000  20.0000  70.2500 Du        
   6342 ****        -6.0000  20.0000  70.5000 Du        
   6343 ****        -6.0000  20.0000  70.7500 Du        
   6344 ****        -6.0000  20.0000  71.0000 Du        
   6345 ****        -6.0000  20.0000  71.2500 Du        
   6346 ****        -6.0000  20.0000  71.5000 Du        
   6347 ****        -6.0000  20.2500  70.5000 Du        
   6348 ****        -6.0000  20.2500  70.7500 Du        
   6349 ****        -6.0000  20.2500  71.0000 Du        
   6350 ****        -6.0000  20.2500  71.2500 Du        
   6351 ****        -6.0000  20.2500  71.5000 Du        
   6352 ****        -6.0000  20.5000  70.7500 Du        
   6353 ****        -6.0000  20.5000  71.0000 Du        
   6354 ****        -6.0000  20.5000  71.2500 Du        
   6355 ****        -6.0000  21.0000  61.2500 Du        
   6356 ****        -6.0000  21.2500  61.7500 Du        
   6357 ****        -6.0000  21.2500  62.0000 Du        
   6358 ****        -5.7500  11.7500  76.0000 Du        
   6359 ****        -5.7500  11.7500  76.2500 Du        
   6360 ****        -5.7500  11.7500  76.5000 Du        
   6361 ****        -5.7500  11.7500  76.7500 Du        
   6362 ****        -5.7500  11.7500  77.0000 Du        
   6363 ****        -5.7500  12.0000  76.0000 Du        
   6364 ****        -5.7500  12.0000  76.2500 Du        
   6365 ****        -5.7500  12.0000  76.5000 Du        
   6366 ****        -5.7500  12.0000  76.7500 Du        
   6367 ****        -5.7500  12.0000  77.0000 Du        
   6368 ****        -5.7500  12.2500  75.7500 Du        
   6369 ****        -5.7500  12.2500  76.0000 Du        
   6370 ****        -5.7500  12.2500  76.2500 Du        
   6371 ****        -5.7500  12.2500  76.5000 Du        
   6372 ****        -5.7500  12.2500  76.7500 Du        
   6373 ****        -5.7500  12.2500  77.0000 Du        
   6374 ****        -5.7500  12.5000  75.7500 Du        
   6375 ****        -5.7500  12.5000  76.0000 Du        
   6376 ****        -5.7500  12.5000  76.2500 Du        
   6377 ****        -5.7500  12.5000  76.5000 Du        
   6378 ****        -5.7500  12.5000  76.7500 Du        
   6379 ****        -5.7500  12.5000  77.0000 Du        
   6380 ****        -5.7500  12.7500  75.5000 Du        
   6381 ****        -5.7500  12.7500  75.7500 Du        
   6382 ****        -5.7500  12.7500  76.0000 Du        
   6383 ****        -5.7500  12.7500  76.2500 Du        
   6384 ****        -5.7500  12.7500  76.5000 Du        
   6385 ****        -5.7500  12.7500  76.7500 Du        
   6386 ****        -5.7500  12.7500  77.0000 Du        
   6387 ****        -5.7500  13.0000  75.5000 Du        
   6388 ****        -5.7500  13.0000  75.7500 Du        
   6389 ****        -5.7500  13.0000  76.0000 Du        
   6390 ****        -5.7500  13.0000  76.2500 Du        
   6391 ****        -5.7500  13.0000  76.5000 Du        
   6392 ****        -5.7500  13.0000  76.7500 Du        
   6393 ****        -5.7500  13.0000  77.0000 Du        
   6394 ****        -5.7500  19.5000  70.0000 Du        
   6395 ****        -5.7500  19.5000  70.2500 Du        
   6396 ****        -5.7500  19.5000  70.5000 Du        
   6397 ****        -5.7500  19.5000  70.7500 Du        
   6398 ****        -5.7500  19.5000  71.0000 Du        
   6399 ****        -5.7500  19.5000  71.2500 Du        
   6400 ****        -5.7500  19.5000  71.5000 Du        
   6401 ****        -5.7500  19.7500  70.0000 Du        
   6402 ****        -5.7500  19.7500  70.2500 Du        
   6403 ****        -5.7500  19.7500  70.5000 Du        
   6404 ****        -5.7500  19.7500  70.7500 Du        
   6405 ****        -5.7500  19.7500  71.0000 Du        
   6406 ****        -5.7500  19.7500  71.2500 Du        
   6407 ****        -5.7500  19.7500  71.5000 Du        
   6408 ****        -5.7500  20.0000  69.7500 Du        
   6409 ****        -5.7500  20.0000  70.0000 Du        
   6410 ****        -5.7500  20.0000  70.2500 Du        
   6411 ****        -5.7500  20.0000  70.5000 Du        
   6412 ****        -5.7500  20.0000  70.7500 Du        
   6413 ****        -5.7500  20.0000  71.0000 Du        
   6414 ****        -5.7500  20.0000  71.2500 Du        
   6415 ****        -5.7500  20.0000  71.5000 Du        
   6416 ****        -5.7500  20.2500  70.0000 Du        
   6417 ****        -5.7500  20.2500  70.2500 Du        
   6418 ****        -5.7500  20.2500  70.5000 Du        
   6419 ****        -5.7500  20.2500  70.7500 Du        
   6420 ****        -5.7500  20.2500  71.0000 Du        
   6421 ****        -5.7500  20.2500  71.2500 Du        
   6422 ****        -5.7500  20.2500  71.5000 Du        
   6423 ****        -5.7500  20.5000  60.7500 Du        
   6424 ****        -5.7500  20.5000  70.5000 Du        
   6425 ****        -5.7500  20.5000  70.7500 Du        
   6426 ****        -5.7500  20.5000  71.0000 Du        
   6427 ****        -5.7500  20.5000  71.2500 Du        
   6428 ****        -5.7500  20.5000  71.5000 Du        
   6429 ****        -5.7500  20.7500  71.0000 Du        
   6430 ****        -5.7500  20.7500  71.2500 Du        
   6431 ****        -5.7500  21.0000  61.2500 Du        
   6432 ****        -5.7500  21.0000  61.5000 Du        
   6433 ****        -5.7500  21.2500  61.7500 Du        
   6434 ****        -5.7500  21.2500  62.0000 Du        
   6435 ****        -5.5000  11.7500  76.0000 Du        
   6436 ****        -5.5000  11.7500  76.2500 Du        
   6437 ****        -5.5000  11.7500  76.5000 Du        
   6438 ****        -5.5000  11.7500  76.7500 Du        
   6439 ****        -5.5000  11.7500  77.0000 Du        
   6440 ****        -5.5000  12.0000  75.7500 Du        
   6441 ****        -5.5000  12.0000  76.0000 Du        
   6442 ****        -5.5000  12.0000  76.2500 Du        
   6443 ****        -5.5000  12.0000  76.5000 Du        
   6444 ****        -5.5000  12.0000  76.7500 Du        
   6445 ****        -5.5000  12.0000  77.0000 Du        
   6446 ****        -5.5000  12.2500  75.7500 Du        
   6447 ****        -5.5000  12.2500  76.0000 Du        
   6448 ****        -5.5000  12.2500  76.2500 Du        
   6449 ****        -5.5000  12.2500  76.5000 Du        
   6450 ****        -5.5000  12.2500  76.7500 Du        
   6451 ****        -5.5000  12.2500  77.0000 Du        
   6452 ****        -5.5000  12.5000  75.5000 Du        
   6453 ****        -5.5000  12.5000  75.7500 Du        
   6454 ****        -5.5000  12.5000  76.0000 Du        
   6455 ****        -5.5000  12.5000  76.2500 Du        
   6456 ****        -5.5000  12.5000  76.5000 Du        
   6457 ****        -5.5000  12.5000  76.7500 Du        
   6458 ****        -5.5000  12.5000  77.0000 Du        
   6459 ****        -5.5000  12.7500  75.5000 Du        
   6460 ****        -5.5000  12.7500  75.7500 Du        
   6461 ****        -5.5000  12.7500  76.0000 Du        
   6462 ****        -5.5000  12.7500  76.2500 Du        
   6463 ****        -5.5000  12.7500  76.5000 Du        
   6464 ****        -5.5000  12.7500  76.7500 Du        
   6465 ****        -5.5000  12.7500  77.0000 Du        
   6466 ****        -5.5000  13.0000  75.5000 Du        
   6467 ****        -5.5000  13.0000  75.7500 Du        
   6468 ****        -5.5000  13.0000  76.0000 Du        
   6469 ****        -5.5000  13.0000  76.5000 Du        
   6470 ****        -5.5000  13.0000  76.7500 Du        
   6471 ****        -5.5000  13.0000  77.0000 Du        
   6472 ****        -5.5000  19.0000  70.7500 Du        
   6473 ****        -5.5000  19.0000  71.0000 Du        
   6474 ****        -5.5000  19.2500  70.5000 Du        
   6475 ****        -5.5000  19.2500  70.7500 Du        
   6476 ****        -5.5000  19.2500  71.0000 Du        
   6477 ****        -5.5000  19.2500  71.2500 Du        
   6478 ****        -5.5000  19.2500  71.5000 Du        
   6479 ****        -5.5000  19.5000  70.0000 Du        
   6480 ****        -5.5000  19.5000  70.2500 Du        
   6481 ****        -5.5000  19.5000  70.5000 Du        
   6482 ****        -5.5000  19.5000  70.7500 Du        
   6483 ****        -5.5000  19.5000  71.0000 Du        
   6484 ****        -5.5000  19.5000  71.2500 Du        
   6485 ****        -5.5000  19.5000  71.5000 Du        
   6486 ****        -5.5000  19.5000  71.7500 Du        
   6487 ****        -5.5000  19.7500  69.7500 Du        
   6488 ****        -5.5000  19.7500  70.0000 Du        
   6489 ****        -5.5000  19.7500  70.2500 Du        
   6490 ****        -5.5000  19.7500  70.5000 Du        
   6491 ****        -5.5000  19.7500  70.7500 Du        
   6492 ****        -5.5000  19.7500  71.0000 Du        
   6493 ****        -5.5000  19.7500  71.2500 Du        
   6494 ****        -5.5000  19.7500  71.5000 Du        
   6495 ****        -5.5000  19.7500  71.7500 Du        
   6496 ****        -5.5000  20.0000  69.7500 Du        
   6497 ****        -5.5000  20.0000  70.0000 Du        
   6498 ****        -5.5000  20.0000  70.2500 Du        
   6499 ****        -5.5000  20.0000  70.5000 Du        
   6500 ****        -5.5000  20.0000  70.7500 Du        
   6501 ****        -5.5000  20.0000  71.0000 Du        
   6502 ****        -5.5000  20.0000  71.2500 Du        
   6503 ****        -5.5000  20.0000  71.5000 Du        
   6504 ****        -5.5000  20.0000  71.7500 Du        
   6505 ****        -5.5000  20.2500  69.7500 Du        
   6506 ****        -5.5000  20.2500  70.0000 Du        
   6507 ****        -5.5000  20.2500  70.2500 Du        
   6508 ****        -5.5000  20.2500  70.5000 Du        
   6509 ****        -5.5000  20.2500  70.7500 Du        
   6510 ****        -5.5000  20.2500  71.0000 Du        
   6511 ****        -5.5000  20.2500  71.2500 Du        
   6512 ****        -5.5000  20.2500  71.5000 Du        
   6513 ****        -5.5000  20.5000  70.0000 Du        
   6514 ****        -5.5000  20.5000  70.2500 Du        
   6515 ****        -5.5000  20.5000  70.5000 Du        
   6516 ****        -5.5000  20.5000  70.7500 Du        
   6517 ****        -5.5000  20.5000  71.0000 Du        
   6518 ****        -5.5000  20.5000  71.2500 Du        
   6519 ****        -5.5000  20.5000  71.5000 Du        
   6520 ****        -5.5000  20.7500  70.5000 Du        
   6521 ****        -5.5000  20.7500  70.7500 Du        
   6522 ****        -5.5000  20.7500  71.0000 Du        
   6523 ****        -5.5000  20.7500  71.2500 Du        
   6524 ****        -5.5000  20.7500  71.5000 Du        
   6525 ****        -5.2500  11.7500  76.0000 Du        
   6526 ****        -5.2500  11.7500  76.2500 Du        
   6527 ****        -5.2500  11.7500  76.5000 Du        
   6528 ****        -5.2500  11.7500  76.7500 Du        
   6529 ****        -5.2500  11.7500  77.0000 Du        
   6530 ****        -5.2500  12.0000  75.7500 Du        
   6531 ****        -5.2500  12.0000  76.0000 Du        
   6532 ****        -5.2500  12.0000  76.2500 Du        
   6533 ****        -5.2500  12.0000  76.5000 Du        
   6534 ****        -5.2500  12.0000  76.7500 Du        
   6535 ****        -5.2500  12.0000  77.0000 Du        
   6536 ****        -5.2500  12.2500  75.7500 Du        
   6537 ****        -5.2500  12.2500  76.0000 Du        
   6538 ****        -5.2500  12.2500  76.2500 Du        
   6539 ****        -5.2500  12.2500  76.5000 Du        
   6540 ****        -5.2500  12.2500  76.7500 Du        
   6541 ****        -5.2500  12.2500  77.0000 Du        
   6542 ****        -5.2500  12.5000  75.5000 Du        
   6543 ****        -5.2500  12.5000  75.7500 Du        
   6544 ****        -5.2500  12.5000  76.0000 Du        
   6545 ****        -5.2500  12.5000  76.2500 Du        
   6546 ****        -5.2500  12.5000  76.5000 Du        
   6547 ****        -5.2500  12.5000  76.7500 Du        
   6548 ****        -5.2500  12.5000  77.0000 Du        
   6549 ****        -5.2500  12.7500  75.2500 Du        
   6550 ****        -5.2500  12.7500  75.5000 Du        
   6551 ****        -5.2500  12.7500  75.7500 Du        
   6552 ****        -5.2500  12.7500  76.0000 Du        
   6553 ****        -5.2500  12.7500  76.2500 Du        
   6554 ****        -5.2500  12.7500  76.5000 Du        
   6555 ****        -5.2500  12.7500  76.7500 Du        
   6556 ****        -5.2500  12.7500  77.0000 Du        
   6557 ****        -5.2500  13.0000  75.0000 Du        
   6558 ****        -5.2500  13.0000  75.2500 Du        
   6559 ****        -5.2500  13.0000  75.5000 Du        
   6560 ****        -5.2500  13.2500  74.7500 Du        
   6561 ****        -5.2500  13.5000  74.5000 Du        
   6562 ****        -5.2500  18.7500  70.7500 Du        
   6563 ****        -5.2500  18.7500  71.0000 Du        
   6564 ****        -5.2500  19.0000  70.5000 Du        
   6565 ****        -5.2500  19.0000  70.7500 Du        
   6566 ****        -5.2500  19.0000  71.0000 Du        
   6567 ****        -5.2500  19.0000  71.2500 Du        
   6568 ****        -5.2500  19.2500  70.5000 Du        
   6569 ****        -5.2500  19.2500  70.7500 Du        
   6570 ****        -5.2500  19.2500  71.0000 Du        
   6571 ****        -5.2500  19.2500  71.2500 Du        
   6572 ****        -5.2500  19.2500  71.5000 Du        
   6573 ****        -5.2500  19.5000  70.0000 Du        
   6574 ****        -5.2500  19.5000  70.2500 Du        
   6575 ****        -5.2500  19.5000  70.5000 Du        
   6576 ****        -5.2500  19.5000  70.7500 Du        
   6577 ****        -5.2500  19.5000  71.0000 Du        
   6578 ****        -5.2500  19.5000  71.2500 Du        
   6579 ****        -5.2500  19.5000  71.5000 Du        
   6580 ****        -5.2500  19.5000  71.7500 Du        
   6581 ****        -5.2500  19.7500  69.7500 Du        
   6582 ****        -5.2500  19.7500  70.0000 Du        
   6583 ****        -5.2500  19.7500  70.2500 Du        
   6584 ****        -5.2500  19.7500  70.5000 Du        
   6585 ****        -5.2500  19.7500  70.7500 Du        
   6586 ****        -5.2500  19.7500  71.0000 Du        
   6587 ****        -5.2500  19.7500  71.2500 Du        
   6588 ****        -5.2500  19.7500  71.5000 Du        
   6589 ****        -5.2500  19.7500  71.7500 Du        
   6590 ****        -5.2500  20.0000  69.5000 Du        
   6591 ****        -5.2500  20.0000  69.7500 Du        
   6592 ****        -5.2500  20.0000  70.0000 Du        
   6593 ****        -5.2500  20.0000  70.2500 Du        
   6594 ****        -5.2500  20.0000  70.5000 Du        
   6595 ****        -5.2500  20.0000  70.7500 Du        
   6596 ****        -5.2500  20.0000  71.0000 Du        
   6597 ****        -5.2500  20.0000  71.2500 Du        
   6598 ****        -5.2500  20.0000  71.5000 Du        
   6599 ****        -5.2500  20.0000  71.7500 Du        
   6600 ****        -5.2500  20.2500  69.5000 Du        
   6601 ****        -5.2500  20.2500  69.7500 Du        
   6602 ****        -5.2500  20.2500  70.0000 Du        
   6603 ****        -5.2500  20.2500  70.2500 Du        
   6604 ****        -5.2500  20.2500  70.5000 Du        
   6605 ****        -5.2500  20.2500  70.7500 Du        
   6606 ****        -5.2500  20.2500  71.0000 Du        
   6607 ****        -5.2500  20.2500  71.2500 Du        
   6608 ****        -5.2500  20.2500  71.5000 Du        
   6609 ****        -5.2500  20.2500  71.7500 Du        
   6610 ****        -5.2500  20.5000  69.7500 Du        
   6611 ****        -5.2500  20.5000  70.0000 Du        
   6612 ****        -5.2500  20.5000  70.2500 Du        
   6613 ****        -5.2500  20.5000  70.5000 Du        
   6614 ****        -5.2500  20.5000  70.7500 Du        
   6615 ****        -5.2500  20.5000  71.0000 Du        
   6616 ****        -5.2500  20.5000  71.2500 Du        
   6617 ****        -5.2500  20.5000  71.5000 Du        
   6618 ****        -5.2500  20.7500  70.0000 Du        
   6619 ****        -5.2500  20.7500  70.2500 Du        
   6620 ****        -5.2500  20.7500  70.5000 Du        
   6621 ****        -5.2500  20.7500  70.7500 Du        
   6622 ****        -5.2500  20.7500  71.0000 Du        
   6623 ****        -5.2500  20.7500  71.2500 Du        
   6624 ****        -5.2500  20.7500  71.5000 Du        
   6625 ****        -5.2500  21.0000  70.5000 Du        
   6626 ****        -5.2500  21.0000  70.7500 Du        
   6627 ****        -5.2500  21.0000  71.0000 Du        
   6628 ****        -5.2500  21.0000  71.2500 Du        
   6629 ****        -5.0000  11.7500  76.7500 Du        
   6630 ****        -5.0000  11.7500  77.0000 Du        
   6631 ****        -5.0000  12.0000  76.0000 Du        
   6632 ****        -5.0000  12.0000  76.2500 Du        
   6633 ****        -5.0000  12.0000  76.5000 Du        
   6634 ****        -5.0000  12.0000  76.7500 Du        
   6635 ****        -5.0000  12.0000  77.0000 Du        
   6636 ****        -5.0000  12.2500  75.7500 Du        
   6637 ****        -5.0000  12.2500  76.0000 Du        
   6638 ****        -5.0000  12.2500  76.2500 Du        
   6639 ****        -5.0000  12.2500  76.5000 Du        
   6640 ****        -5.0000  12.2500  76.7500 Du        
   6641 ****        -5.0000  12.2500  77.0000 Du        
   6642 ****        -5.0000  12.5000  75.5000 Du        
   6643 ****        -5.0000  12.5000  75.7500 Du        
   6644 ****        -5.0000  12.5000  76.0000 Du        
   6645 ****        -5.0000  12.5000  76.2500 Du        
   6646 ****        -5.0000  12.5000  76.5000 Du        
   6647 ****        -5.0000  12.5000  76.7500 Du        
   6648 ****        -5.0000  12.5000  77.0000 Du        
   6649 ****        -5.0000  12.7500  75.2500 Du        
   6650 ****        -5.0000  12.7500  75.5000 Du        
   6651 ****        -5.0000  12.7500  75.7500 Du        
   6652 ****        -5.0000  12.7500  76.0000 Du        
   6653 ****        -5.0000  12.7500  76.2500 Du        
   6654 ****        -5.0000  12.7500  76.5000 Du        
   6655 ****        -5.0000  12.7500  76.7500 Du        
   6656 ****        -5.0000  12.7500  77.0000 Du        
   6657 ****        -5.0000  13.0000  74.7500 Du        
   6658 ****        -5.0000  13.0000  75.0000 Du        
   6659 ****        -5.0000  13.2500  74.7500 Du        
   6660 ****        -5.0000  13.7500  74.0000 Du        
   6661 ****        -5.0000  18.7500  70.7500 Du        
   6662 ****        -5.0000  19.0000  70.5000 Du        
   6663 ****        -5.0000  19.0000  70.7500 Du        
   6664 ****        -5.0000  19.0000  71.0000 Du        
   6665 ****        -5.0000  19.0000  71.2500 Du        
   6666 ****        -5.0000  19.2500  70.5000 Du        
   6667 ****        -5.0000  19.2500  70.7500 Du        
   6668 ****        -5.0000  19.2500  71.0000 Du        
   6669 ****        -5.0000  19.2500  71.2500 Du        
   6670 ****        -5.0000  19.5000  70.0000 Du        
   6671 ****        -5.0000  19.5000  70.2500 Du        
   6672 ****        -5.0000  19.5000  70.5000 Du        
   6673 ****        -5.0000  19.5000  70.7500 Du        
   6674 ****        -5.0000  19.5000  71.0000 Du        
   6675 ****        -5.0000  19.5000  71.2500 Du        
   6676 ****        -5.0000  19.5000  71.5000 Du        
   6677 ****        -5.0000  19.7500  69.7500 Du        
   6678 ****        -5.0000  19.7500  70.0000 Du        
   6679 ****        -5.0000  19.7500  70.2500 Du        
   6680 ****        -5.0000  19.7500  70.5000 Du        
   6681 ****        -5.0000  19.7500  70.7500 Du        
   6682 ****        -5.0000  19.7500  71.0000 Du        
   6683 ****        -5.0000  19.7500  71.2500 Du        
   6684 ****        -5.0000  19.7500  71.5000 Du        
   6685 ****        -5.0000  19.7500  71.7500 Du        
   6686 ****        -5.0000  20.0000  69.5000 Du        
   6687 ****        -5.0000  20.0000  69.7500 Du        
   6688 ****        -5.0000  20.0000  70.0000 Du        
   6689 ****        -5.0000  20.0000  70.2500 Du        
   6690 ****        -5.0000  20.0000  70.5000 Du        
   6691 ****        -5.0000  20.0000  70.7500 Du        
   6692 ****        -5.0000  20.0000  71.0000 Du        
   6693 ****        -5.0000  20.0000  71.2500 Du        
   6694 ****        -5.0000  20.0000  71.5000 Du        
   6695 ****        -5.0000  20.0000  71.7500 Du        
   6696 ****        -5.0000  20.2500  69.5000 Du        
   6697 ****        -5.0000  20.2500  69.7500 Du        
   6698 ****        -5.0000  20.2500  70.0000 Du        
   6699 ****        -5.0000  20.2500  70.2500 Du        
   6700 ****        -5.0000  20.2500  70.5000 Du        
   6701 ****        -5.0000  20.2500  70.7500 Du        
   6702 ****        -5.0000  20.2500  71.0000 Du        
   6703 ****        -5.0000  20.2500  71.2500 Du        
   6704 ****        -5.0000  20.2500  71.5000 Du        
   6705 ****        -5.0000  20.2500  71.7500 Du        
   6706 ****        -5.0000  20.5000  69.5000 Du        
   6707 ****        -5.0000  20.5000  69.7500 Du        
   6708 ****        -5.0000  20.5000  70.0000 Du        
   6709 ****        -5.0000  20.5000  70.2500 Du        
   6710 ****        -5.0000  20.5000  70.5000 Du        
   6711 ****        -5.0000  20.5000  70.7500 Du        
   6712 ****        -5.0000  20.5000  71.0000 Du        
   6713 ****        -5.0000  20.5000  71.2500 Du        
   6714 ****        -5.0000  20.5000  71.5000 Du        
   6715 ****        -5.0000  20.5000  71.7500 Du        
   6716 ****        -5.0000  20.7500  69.7500 Du        
   6717 ****        -5.0000  20.7500  70.0000 Du        
   6718 ****        -5.0000  20.7500  70.2500 Du        
   6719 ****        -5.0000  20.7500  70.5000 Du        
   6720 ****        -5.0000  20.7500  70.7500 Du        
   6721 ****        -5.0000  20.7500  71.0000 Du        
   6722 ****        -5.0000  20.7500  71.2500 Du        
   6723 ****        -5.0000  20.7500  71.5000 Du        
   6724 ****        -5.0000  21.0000  70.2500 Du        
   6725 ****        -5.0000  21.0000  70.5000 Du        
   6726 ****        -5.0000  21.0000  70.7500 Du        
   6727 ****        -5.0000  21.0000  71.0000 Du        
   6728 ****        -5.0000  21.0000  71.2500 Du        
   6729 ****        -5.0000  21.0000  71.5000 Du        
   6730 ****        -5.0000  21.2500  70.7500 Du        
   6731 ****        -5.0000  21.2500  71.0000 Du        
   6732 ****        -5.0000  21.2500  71.2500 Du        
   6733 ****        -4.7500  12.2500  77.0000 Du        
   6734 ****        -4.7500  12.5000  75.7500 Du        
   6735 ****        -4.7500  12.5000  76.5000 Du        
   6736 ****        -4.7500  12.5000  76.7500 Du        
   6737 ****        -4.7500  12.5000  77.0000 Du        
   6738 ****        -4.7500  12.7500  75.0000 Du        
   6739 ****        -4.7500  12.7500  75.2500 Du        
   6740 ****        -4.7500  13.0000  75.0000 Du        
   6741 ****        -4.7500  19.0000  70.7500 Du        
   6742 ****        -4.7500  19.2500  70.5000 Du        
   6743 ****        -4.7500  19.2500  70.7500 Du        
   6744 ****        -4.7500  19.2500  71.0000 Du        
   6745 ****        -4.7500  19.5000  70.2500 Du        
   6746 ****        -4.7500  19.5000  70.5000 Du        
   6747 ****        -4.7500  19.5000  70.7500 Du        
   6748 ****        -4.7500  19.5000  71.0000 Du        
   6749 ****        -4.7500  19.5000  71.2500 Du        
   6750 ****        -4.7500  19.7500  70.0000 Du        
   6751 ****        -4.7500  19.7500  70.2500 Du        
   6752 ****        -4.7500  19.7500  70.5000 Du        
   6753 ****        -4.7500  19.7500  70.7500 Du        
   6754 ****        -4.7500  19.7500  71.0000 Du        
   6755 ****        -4.7500  19.7500  71.2500 Du        
   6756 ****        -4.7500  19.7500  71.5000 Du        
   6757 ****        -4.7500  20.0000  69.5000 Du        
   6758 ****        -4.7500  20.0000  69.7500 Du        
   6759 ****        -4.7500  20.0000  70.0000 Du        
   6760 ****        -4.7500  20.0000  70.2500 Du        
   6761 ****        -4.7500  20.0000  70.5000 Du        
   6762 ****        -4.7500  20.0000  70.7500 Du        
   6763 ****        -4.7500  20.0000  71.0000 Du        
   6764 ****        -4.7500  20.0000  71.2500 Du        
   6765 ****        -4.7500  20.0000  71.5000 Du        
   6766 ****        -4.7500  20.2500  69.5000 Du        
   6767 ****        -4.7500  20.2500  69.7500 Du        
   6768 ****        -4.7500  20.2500  70.0000 Du        
   6769 ****        -4.7500  20.2500  70.2500 Du        
   6770 ****        -4.7500  20.2500  70.5000 Du        
   6771 ****        -4.7500  20.2500  70.7500 Du        
   6772 ****        -4.7500  20.2500  71.0000 Du        
   6773 ****        -4.7500  20.2500  71.2500 Du        
   6774 ****        -4.7500  20.2500  71.5000 Du        
   6775 ****        -4.7500  20.2500  71.7500 Du        
   6776 ****        -4.7500  20.5000  69.5000 Du        
   6777 ****        -4.7500  20.5000  69.7500 Du        
   6778 ****        -4.7500  20.5000  70.0000 Du        
   6779 ****        -4.7500  20.5000  70.2500 Du        
   6780 ****        -4.7500  20.5000  70.5000 Du        
   6781 ****        -4.7500  20.5000  70.7500 Du        
   6782 ****        -4.7500  20.5000  71.0000 Du        
   6783 ****        -4.7500  20.5000  71.2500 Du        
   6784 ****        -4.7500  20.5000  71.5000 Du        
   6785 ****        -4.7500  20.5000  71.7500 Du        
   6786 ****        -4.7500  20.7500  69.7500 Du        
   6787 ****        -4.7500  20.7500  70.0000 Du        
   6788 ****        -4.7500  20.7500  70.2500 Du        
   6789 ****        -4.7500  20.7500  70.5000 Du        
   6790 ****        -4.7500  20.7500  70.7500 Du        
   6791 ****        -4.7500  20.7500  71.0000 Du        
   6792 ****        -4.7500  20.7500  71.2500 Du        
   6793 ****        -4.7500  20.7500  71.5000 Du        
   6794 ****        -4.7500  21.0000  70.0000 Du        
   6795 ****        -4.7500  21.0000  70.2500 Du        
   6796 ****        -4.7500  21.0000  70.5000 Du        
   6797 ****        -4.7500  21.0000  70.7500 Du        
   6798 ****        -4.7500  21.0000  71.0000 Du        
   6799 ****        -4.7500  21.0000  71.2500 Du        
   6800 ****        -4.7500  21.0000  71.5000 Du        
   6801 ****        -4.7500  21.2500  70.5000 Du        
   6802 ****        -4.7500  21.2500  70.7500 Du        
   6803 ****        -4.7500  21.2500  71.0000 Du        
   6804 ****        -4.7500  21.2500  71.2500 Du        
   6805 ****        -4.5000  19.5000  70.5000 Du        
   6806 ****        -4.5000  19.5000  70.7500 Du        
   6807 ****        -4.5000  19.5000  71.0000 Du        
   6808 ****        -4.5000  19.7500  70.0000 Du        
   6809 ****        -4.5000  19.7500  70.2500 Du        
   6810 ****        -4.5000  19.7500  70.5000 Du        
   6811 ****        -4.5000  19.7500  70.7500 Du        
   6812 ****        -4.5000  19.7500  71.0000 Du        
   6813 ****        -4.5000  19.7500  71.2500 Du        
   6814 ****        -4.5000  20.0000  70.0000 Du        
   6815 ****        -4.5000  20.0000  70.2500 Du        
   6816 ****        -4.5000  20.0000  70.5000 Du        
   6817 ****        -4.5000  20.0000  70.7500 Du        
   6818 ****        -4.5000  20.0000  71.0000 Du        
   6819 ****        -4.5000  20.0000  71.2500 Du        
   6820 ****        -4.5000  20.0000  71.5000 Du        
   6821 ****        -4.5000  20.2500  69.7500 Du        
   6822 ****        -4.5000  20.2500  70.0000 Du        
   6823 ****        -4.5000  20.2500  70.2500 Du        
   6824 ****        -4.5000  20.2500  70.5000 Du        
   6825 ****        -4.5000  20.2500  70.7500 Du        
   6826 ****        -4.5000  20.2500  71.0000 Du        
   6827 ****        -4.5000  20.2500  71.2500 Du        
   6828 ****        -4.5000  20.2500  71.5000 Du        
   6829 ****        -4.5000  20.5000  69.7500 Du        
   6830 ****        -4.5000  20.5000  70.0000 Du        
   6831 ****        -4.5000  20.5000  70.2500 Du        
   6832 ****        -4.5000  20.5000  70.5000 Du        
   6833 ****        -4.5000  20.5000  70.7500 Du        
   6834 ****        -4.5000  20.5000  71.0000 Du        
   6835 ****        -4.5000  20.5000  71.2500 Du        
   6836 ****        -4.5000  20.5000  71.5000 Du        
   6837 ****        -4.5000  20.7500  69.7500 Du        
   6838 ****        -4.5000  20.7500  70.0000 Du        
   6839 ****        -4.5000  20.7500  70.2500 Du        
   6840 ****        -4.5000  20.7500  70.5000 Du        
   6841 ****        -4.5000  20.7500  70.7500 Du        
   6842 ****        -4.5000  20.7500  71.0000 Du        
   6843 ****        -4.5000  20.7500  71.2500 Du        
   6844 ****        -4.5000  20.7500  71.5000 Du        
   6845 ****        -4.5000  21.0000  69.7500 Du        
   6846 ****        -4.5000  21.0000  70.0000 Du        
   6847 ****        -4.5000  21.0000  70.2500 Du        
   6848 ****        -4.5000  21.0000  70.5000 Du        
   6849 ****        -4.5000  21.0000  70.7500 Du        
   6850 ****        -4.5000  21.0000  71.0000 Du        
   6851 ****        -4.5000  21.0000  71.2500 Du        
   6852 ****        -4.5000  21.0000  71.5000 Du        
   6853 ****        -4.5000  21.2500  70.2500 Du        
   6854 ****        -4.5000  21.2500  70.5000 Du        
   6855 ****        -4.5000  21.2500  70.7500 Du        
   6856 ****        -4.5000  21.2500  71.0000 Du        
   6857 ****        -4.5000  21.2500  71.2500 Du        
   6858 ****        -4.2500  19.7500  70.2500 Du        
   6859 ****        -4.2500  19.7500  70.5000 Du        
   6860 ****        -4.2500  19.7500  70.7500 Du        
   6861 ****        -4.2500  19.7500  71.0000 Du        
   6862 ****        -4.2500  20.0000  70.0000 Du        
   6863 ****        -4.2500  20.0000  70.2500 Du        
   6864 ****        -4.2500  20.0000  70.5000 Du        
   6865 ****        -4.2500  20.0000  70.7500 Du        
   6866 ****        -4.2500  20.0000  71.0000 Du        
   6867 ****        -4.2500  20.0000  71.2500 Du        
   6868 ****        -4.2500  20.2500  70.0000 Du        
   6869 ****        -4.2500  20.2500  70.2500 Du        
   6870 ****        -4.2500  20.2500  70.5000 Du        
   6871 ****        -4.2500  20.2500  70.7500 Du        
   6872 ****        -4.2500  20.2500  71.0000 Du        
   6873 ****        -4.2500  20.2500  71.2500 Du        
   6874 ****        -4.2500  20.2500  71.5000 Du        
   6875 ****        -4.2500  20.5000  69.7500 Du        
   6876 ****        -4.2500  20.5000  70.0000 Du        
   6877 ****        -4.2500  20.5000  70.2500 Du        
   6878 ****        -4.2500  20.5000  70.5000 Du        
   6879 ****        -4.2500  20.5000  70.7500 Du        
   6880 ****        -4.2500  20.5000  71.0000 Du        
   6881 ****        -4.2500  20.5000  71.2500 Du        
   6882 ****        -4.2500  20.5000  71.5000 Du        
   6883 ****        -4.2500  20.7500  69.7500 Du        
   6884 ****        -4.2500  20.7500  70.0000 Du        
   6885 ****        -4.2500  20.7500  70.2500 Du        
   6886 ****        -4.2500  20.7500  70.5000 Du        
   6887 ****        -4.2500  20.7500  70.7500 Du        
   6888 ****        -4.2500  20.7500  71.0000 Du        
   6889 ****        -4.2500  20.7500  71.2500 Du        
   6890 ****        -4.2500  20.7500  71.5000 Du        
   6891 ****        -4.2500  21.0000  69.7500 Du        
   6892 ****        -4.2500  21.0000  70.0000 Du        
   6893 ****        -4.2500  21.0000  70.2500 Du        
   6894 ****        -4.2500  21.0000  70.5000 Du        
   6895 ****        -4.2500  21.0000  70.7500 Du        
   6896 ****        -4.2500  21.0000  71.0000 Du        
   6897 ****        -4.2500  21.0000  71.2500 Du        
   6898 ****        -4.2500  21.0000  71.5000 Du        
   6899 ****        -4.2500  21.2500  70.2500 Du        
   6900 ****        -4.2500  21.2500  70.5000 Du        
   6901 ****        -4.2500  21.2500  70.7500 Du        
   6902 ****        -4.2500  21.2500  71.0000 Du        
   6903 ****        -4.2500  21.2500  71.2500 Du        
   6904 ****        -4.0000  20.0000  70.2500 Du        
   6905 ****        -4.0000  20.0000  70.5000 Du        
   6906 ****        -4.0000  20.0000  70.7500 Du        
   6907 ****        -4.0000  20.0000  71.0000 Du        
   6908 ****        -4.0000  20.2500  70.0000 Du        
   6909 ****        -4.0000  20.2500  70.2500 Du        
   6910 ****        -4.0000  20.2500  70.5000 Du        
   6911 ****        -4.0000  20.2500  70.7500 Du        
   6912 ****        -4.0000  20.2500  71.0000 Du        
   6913 ****        -4.0000  20.2500  71.2500 Du        
   6914 ****        -4.0000  20.5000  69.7500 Du        
   6915 ****        -4.0000  20.5000  70.0000 Du        
   6916 ****        -4.0000  20.5000  70.2500 Du        
   6917 ****        -4.0000  20.5000  70.5000 Du        
   6918 ****        -4.0000  20.5000  70.7500 Du        
   6919 ****        -4.0000  20.5000  71.0000 Du        
   6920 ****        -4.0000  20.5000  71.2500 Du        
   6921 ****        -4.0000  20.5000  71.5000 Du        
   6922 ****        -4.0000  20.7500  69.7500 Du        
   6923 ****        -4.0000  20.7500  70.0000 Du        
   6924 ****        -4.0000  20.7500  70.2500 Du        
   6925 ****        -4.0000  20.7500  70.5000 Du        
   6926 ****        -4.0000  20.7500  70.7500 Du        
   6927 ****        -4.0000  20.7500  71.0000 Du        
   6928 ****        -4.0000  20.7500  71.2500 Du        
   6929 ****        -4.0000  20.7500  71.5000 Du        
   6930 ****        -4.0000  21.0000  69.7500 Du        
   6931 ****        -4.0000  21.0000  70.0000 Du        
   6932 ****        -4.0000  21.0000  70.2500 Du        
   6933 ****        -4.0000  21.0000  70.5000 Du        
   6934 ****        -4.0000  21.0000  70.7500 Du        
   6935 ****        -4.0000  21.0000  71.0000 Du        
   6936 ****        -4.0000  21.0000  71.2500 Du        
   6937 ****        -4.0000  21.2500  70.0000 Du        
   6938 ****        -4.0000  21.2500  70.2500 Du        
   6939 ****        -4.0000  21.2500  70.5000 Du        
   6940 ****        -4.0000  21.2500  70.7500 Du        
   6941 ****        -4.0000  21.2500  71.0000 Du        
   6942 ****        -3.7500  20.2500  70.2500 Du        
   6943 ****        -3.7500  20.2500  70.5000 Du        
   6944 ****        -3.7500  20.2500  70.7500 Du        
   6945 ****        -3.7500  20.2500  71.0000 Du        
   6946 ****        -3.7500  20.5000  70.0000 Du        
   6947 ****        -3.7500  20.5000  70.2500 Du        
   6948 ****        -3.7500  20.5000  70.5000 Du        
   6949 ****        -3.7500  20.5000  70.7500 Du        
   6950 ****        -3.7500  20.5000  71.0000 Du        
   6951 ****        -3.7500  20.5000  71.2500 Du        
   6952 ****        -3.7500  20.7500  70.0000 Du        
   6953 ****        -3.7500  20.7500  70.2500 Du        
   6954 ****        -3.7500  20.7500  70.5000 Du        
   6955 ****        -3.7500  20.7500  70.7500 Du        
   6956 ****        -3.7500  20.7500  71.0000 Du        
   6957 ****        -3.7500  20.7500  71.2500 Du        
   6958 ****        -3.7500  20.7500  71.5000 Du        
   6959 ****        -3.7500  21.0000  69.7500 Du        
   6960 ****        -3.7500  21.0000  70.0000 Du        
   6961 ****        -3.7500  21.0000  70.2500 Du        
   6962 ****        -3.7500  21.0000  70.5000 Du        
   6963 ****        -3.7500  21.0000  70.7500 Du        
   6964 ****        -3.7500  21.0000  71.0000 Du        
   6965 ****        -3.7500  21.0000  71.2500 Du        
   6966 ****        -3.7500  21.2500  70.2500 Du        
   6967 ****        -3.5000  20.7500  70.2500 Du        
   6968 ****        -3.5000  20.7500  70.5000 Du        
   6969 ****        -3.5000  20.7500  70.7500 Du        
   6970 ****        -3.5000  20.7500  71.0000 Du        
   6971 ****        -3.5000  21.0000  70.5000 Du        
   6972 ****        -3.2500  20.7500  70.5000 Du        
   6973 ****        -3.2500  20.7500  70.7500 Du        
