#       Name:                unknown
#       Creating user name   williammccorkindale
#       Creation time:       Tue Jun  7 14:55:34 2022


#       File generated by GOLD software.
#

@<TRIPOS>MOLECULE
unknown|prepared_Mpro-x0354|mol2|1|dock5
    43    44     1
SMALL
NO_CHARGES


@<TRIPOS>ATOM
      1 C1         -12.2564  12.9069  63.8219 C.3            1 RES1               0.0000
      2 N2         -11.1501  12.8915  64.7281 N.3            1 RES1               0.0000
      3 C3         -11.5136  12.3126  65.9852 C.3            1 RES1               0.0000
      4 C4         -12.4200  13.2316  66.8005 C.3            1 RES1               0.0000
      5 N5         -11.7504  14.4978  66.8927 N.am           1 RES1               0.0000
      6 C6         -11.3167  15.1529  65.6874 C.3            1 RES1               0.0000
      7 C7         -10.5032  14.1534  64.8943 C.3            1 RES1               0.0000
      8 C8         -11.5253  15.0841  68.1572 C.2            1 RES1               0.0000
      9 O9         -10.9425  16.1943  68.2871 O.2            1 RES1               0.0000
     10 C10        -11.9883  14.3728  69.3715 C.3            1 RES1               0.0000
     11 O11        -11.4366  13.0791  69.3666 O.3            1 RES1               0.0000
     12 C12        -12.0169  12.1001  70.1760 C.ar           1 RES1               0.0000
     13 C13        -12.8941  12.4269  71.1890 C.ar           1 RES1               0.0000
     14 C14        -13.4655  11.4558  71.9867 C.ar           1 RES1               0.0000
     15 C15        -13.1941  10.1125  71.8179 C.ar           1 RES1               0.0000
     16 C16        -13.8123   9.0722  72.6799 C.3            1 RES1               0.0000
     17 C17        -12.3153   9.7885  70.8027 C.ar           1 RES1               0.0000
     18 C18        -11.7438  10.7594  70.0048 C.ar           1 RES1               0.0000
     19 H19        -13.0844  12.2150  64.1436 H              1 RES1               0.0000
     20 H20        -12.6547  13.9353  63.6975 H              1 RES1               0.0000
     21 H21        -11.8947  12.4777  62.8472 H              1 RES1               0.0000
     22 H22        -10.6041  12.1557  66.5843 H              1 RES1               0.0000
     23 H23        -12.0904  11.3931  65.7883 H              1 RES1               0.0000
     24 H24        -13.4156  13.3341  66.3224 H              1 RES1               0.0000
     25 H25        -12.5418  12.7253  67.7846 H              1 RES1               0.0000
     26 H26        -12.1622  15.5077  65.0690 H              1 RES1               0.0000
     27 H27        -10.6812  16.0101  65.9269 H              1 RES1               0.0000
     28 H28         -9.5663  13.9695  65.4883 H              1 RES1               0.0000
     29 H29        -10.2376  14.6277  63.9459 H              1 RES1               0.0000
     30 H30        -13.1039  14.3329  69.4146 H              1 RES1               0.0000
     31 H31        -11.6934  14.9375  70.3030 H              1 RES1               0.0000
     32 H32        -13.1209  13.4791  71.3382 H              1 RES1               0.0000
     33 H33        -14.1598  11.7236  72.7874 H              1 RES1               0.0000
     34 H34        -13.2210   8.9796  73.6226 H              1 RES1               0.0000
     35 H35        -14.8832   9.2845  72.8832 H              1 RES1               0.0000
     36 H36        -13.7813   8.0850  72.1857 H              1 RES1               0.0000
     37 H37        -12.0942   8.7352  70.6605 H              1 RES1               0.0000
     38 H38        -11.0503  10.4799  69.2064 H              1 RES1               0.0000
     39 ****       -10.4639  12.3060  64.2966 LP             1 RES1               0.0000
     40 ****       -10.6230  16.6889  67.4788 LP             1 RES1               0.0000
     41 ****       -10.7996  16.5804  69.1984 LP             1 RES1               0.0000
     42 ****       -10.4810  13.1655  69.6481 LP             1 RES1               0.0000
     43 ****       -11.4778  12.7450  68.4249 LP             1 RES1               0.0000
@<TRIPOS>BOND
    1    1    2 1     
    2    2    3 1     
    3    3    4 1     
    4    4    5 1     
    5    5    6 1     
    6    6    7 1     
    7    5    8 am    
    8    8    9 2     
    9    8   10 1     
   10   10   11 1     
   11   11   12 1     
   12   12   13 ar    
   13   13   14 ar    
   14   14   15 ar    
   15   15   16 1     
   16   15   17 ar    
   17   17   18 ar    
   18    7    2 1     
   19   12   18 ar    
   20    1   19 1     
   21    1   20 1     
   22    1   21 1     
   23    3   22 1     
   24    3   23 1     
   25    4   24 1     
   26    4   25 1     
   27    6   26 1     
   28    6   27 1     
   29    7   28 1     
   30    7   29 1     
   31   10   30 1     
   32   10   31 1     
   33   13   32 1     
   34   14   33 1     
   35   16   34 1     
   36   16   35 1     
   37   16   36 1     
   38   17   37 1     
   39   18   38 1     
   40    2   39 1     
   41    9   40 1     
   42    9   41 1     
   43   11   42 1     
   44   11   43 1     
@<TRIPOS>SUBSTRUCTURE
      1 RES1           1
@<TRIPOS>SET
LONE_PAIRS      STATIC     ATOMS    <user>   **** ""
5 39 40 41 42 43
ATOM$BLUE        STATIC     ATOMS    COLORGROUP SYSTEM
5 39 40 41 42 43
@<TRIPOS>COMMENT
> <Gold.Version>
2022.1.0

> <Gold.Id.Protein>
6LU7|6LU7_protein|mol2

> <Gold.Protein.RotatedTorsions>
[ 3973 1471 1470 1467 ] final -169.19 input   60.00 | X-H torsion
[ 3372  414  413  411 ] final  -12.03 input   60.00 | X-H torsion
[ 4268 1114 1113 1110 ] final  -14.18 input   59.99 | X-H torsion
[ 4409  924  923  921 ] final  -97.66 input   59.99 | X-H torsion
[ 4183 1244 1243 1241 ] final   51.28 input   59.99 | X-H torsion
[ 3800  178  177  174 ] final   18.28 input   60.00 | X-H torsion
[ 3793  171  170  167 ] final   25.73 input   60.00 | X-H torsion
[ 3576  185  184  181 ] final   73.98 input   60.00 | X-H torsion
[ 3523  346  345  342 ] final   92.18 input   60.01 | X-H torsion
[ 3515  339  338  335 ] final  112.42 input   60.00 | X-H torsion
[ 3663  154  153  150 ] final   -6.27 input   60.00 | X-H torsion
[ 4280 1130 1129 1126 ] final  155.41 input   60.00 | X-H torsion

> <Gold.Protein.ActiveResidues>
 VAL20   THR21   CYS22   GLY23   THR24   THR25   THR26   LEU27   ASN28   PRO39  
 ARG40   HIS41   VAL42   CYS44   THR45   SER46   ASP48   MET49   LEU50   PRO52  
 TYR54   TYR118  ASN119  ILE136  GLY138  SER139  PHE140  LEU141  ASN142  GLY143 
 SER144  CYS145  GLY146  SER147  TYR161  HIS163  HIS164  MET165  GLU166  LEU167 
 PRO168  THR169  GLY170  VAL171  HIS172  ALA173  PHE181  PHE185  VAL186  ASP187 
 ARG188  GLN189  THR190  ALA191  GLN192  ALA193 

> <Gold.Protein.RotatedAtoms>
  -14.4490   18.3424   75.0917 H   0  0  0  0  0  0  0  0  0  0  0  0  # atno 3372 bound_to 414 
   -3.1782   22.2714   74.6991 H   0  0  0  0  0  0  0  0  0  0  0  0  # atno 3515 bound_to 339 
   -2.3533   18.4187   73.1826 H   0  0  0  0  0  0  0  0  0  0  0  0  # atno 3523 bound_to 346 
   -8.2910   26.7308   63.9363 H   0  0  0  0  0  0  0  0  0  0  0  0  # atno 3576 bound_to 185 
   -8.3722   28.5370   65.4042 H   0  0  0  0  0  0  0  0  0  0  0  0  # atno 3663 bound_to 154 
   -3.5529   24.2138   71.9843 H   0  0  0  0  0  0  0  0  0  0  0  0  # atno 3793 bound_to 171 
   -6.0857   23.5595   71.6377 H   0  0  0  0  0  0  0  0  0  0  0  0  # atno 3800 bound_to 178 
  -15.5830    8.4141   78.5600 H   0  0  0  0  0  0  0  0  0  0  0  0  # atno 3973 bound_to 1471
  -20.9845   12.3853   63.6763 H   0  0  0  0  0  0  0  0  0  0  0  0  # atno 4183 bound_to 1244
  -12.9893   16.3420   62.1366 H   0  0  0  0  0  0  0  0  0  0  0  0  # atno 4268 bound_to 1114
  -15.7015   18.6074   58.8874 H   0  0  0  0  0  0  0  0  0  0  0  0  # atno 4280 bound_to 1130
  -12.0025   15.3887   57.7285 H   0  0  0  0  0  0  0  0  0  0  0  0  # atno 4409 bound_to 924 
  -15.4782    7.3367   77.3450 LP  0  0  0  0  0  0  0  0  0  0  0  0  # atno 4696 bound_to 1471
  -14.9714    8.8731   77.1236 LP  0  0  0  0  0  0  0  0  0  0  0  0  # atno 4697 bound_to 1471
  -15.5416   17.2351   75.5693 LP  0  0  0  0  0  0  0  0  0  0  0  0  # atno 4731 bound_to 414 
  -14.1071   17.3563   76.3402 LP  0  0  0  0  0  0  0  0  0  0  0  0  # atno 4732 bound_to 414 
  -12.7188   15.1738   61.0366 LP  0  0  0  0  0  0  0  0  0  0  0  0  # atno 4733 bound_to 1114
  -14.2086   15.8242   61.1916 LP  0  0  0  0  0  0  0  0  0  0  0  0  # atno 4734 bound_to 1114
  -10.4564   14.9182   57.5380 LP  0  0  0  0  0  0  0  0  0  0  0  0  # atno 4763 bound_to 924 
  -11.4007   15.1782   56.2314 LP  0  0  0  0  0  0  0  0  0  0  0  0  # atno 4764 bound_to 924 
  -20.4374   13.6241   64.5786 LP  0  0  0  0  0  0  0  0  0  0  0  0  # atno 4771 bound_to 1244
  -19.9409   13.4548   63.0321 LP  0  0  0  0  0  0  0  0  0  0  0  0  # atno 4772 bound_to 1244
   -7.0849   22.2751   71.6475 LP  0  0  0  0  0  0  0  0  0  0  0  0  # atno 4775 bound_to 178 
   -7.4506   23.6044   72.5225 LP  0  0  0  0  0  0  0  0  0  0  0  0  # atno 4776 bound_to 178 
   -2.2951   24.8826   72.7707 LP  0  0  0  0  0  0  0  0  0  0  0  0  # atno 4779 bound_to 171 
   -2.1071   23.4672   71.9783 LP  0  0  0  0  0  0  0  0  0  0  0  0  # atno 4780 bound_to 171 
   -8.5045   25.1593   63.5723 LP  0  0  0  0  0  0  0  0  0  0  0  0  # atno 4783 bound_to 185 
   -7.1536   25.9369   63.0855 LP  0  0  0  0  0  0  0  0  0  0  0  0  # atno 4784 bound_to 185 
   -3.6549   17.5380   72.7603 LP  0  0  0  0  0  0  0  0  0  0  0  0  # atno 4785 bound_to 346 
   -2.1583   16.8946   72.6467 LP  0  0  0  0  0  0  0  0  0  0  0  0  # atno 4786 bound_to 346 
   -3.5937   20.7210   74.4317 LP  0  0  0  0  0  0  0  0  0  0  0  0  # atno 4787 bound_to 339 
   -2.6961   21.1151   75.7376 LP  0  0  0  0  0  0  0  0  0  0  0  0  # atno 4788 bound_to 339 
   -6.7636   28.7792   65.3611 LP  0  0  0  0  0  0  0  0  0  0  0  0  # atno 4797 bound_to 154 
   -7.7852   29.9863   64.9536 LP  0  0  0  0  0  0  0  0  0  0  0  0  # atno 4798 bound_to 154 

> <Gold.Score>
     Score     S(PLP)   S(hbond)     S(cho)   S(metal)  DE(clash)   DE(tors)     intcor
     43.50     -44.09       0.00       0.00       0.00       0.00       0.30       0.00

> <Gold.PLP.Fitness>
43.5010

> <Gold.PLP.PLP>
-44.0935

> <Gold.PLP.part.hbond>
0.0000

> <Gold.PLP.part.metal>
0.0000

> <Gold.PLP.part.buried>
-5.3361

> <Gold.PLP.part.nonpolar>
-39.8275

> <Gold.PLP.part.repulsive>
0.3432

> <Gold.PLP.ligand.clash>
0.0000

> <Gold.PLP.ligand.torsion>
0.2976

> <Gold.PLP.Chemscore.Hbond>
0.0000

> <Gold.PLP.Chemscore.CHOScore>
0.0000

> <Gold.PLP.Chemscore.Metal>
0.0000

> <Gold.PLP.Chemscore.Internal.Correction>
0.0027

