#       Name:                unknown
#       Creating user name   williammccorkindale
#       Creation time:       Tue Jun  7 14:55:42 2022


#       File generated by GOLD software.
#

@<TRIPOS>MOLECULE
unknown|prepared_Mpro-x0387|mol2|1|dock4
    31    32     1
SMALL
NO_CHARGES


@<TRIPOS>ATOM
      1 O1         -10.8700  15.6992  64.4825 O.3            1 RES1               0.0000
      2 C2         -10.5790  14.9017  65.5871 C.3            1 RES1               0.0000
      3 C3         -11.8703  14.6063  66.2940 C.3            1 RES1               0.0000
      4 C4         -11.7431  14.4860  67.7782 C.3            1 RES1               0.0000
      5 N5         -10.9414  15.4589  68.4373 N.3            1 RES1               0.0000
      6 C6         -11.6524  16.2359  69.4036 C.3            1 RES1               0.0000
      7 C7         -12.1121  15.4505  70.6084 C.2            1 RES1               0.0000
      8 C8         -12.8414  14.3358  70.5723 C.2            1 RES1               0.0000
      9 C9         -13.1829  13.7428  71.7438 C.2            1 RES1               0.0000
     10 S10        -12.4607  14.7789  72.9152 S.3            1 RES1               0.0000
     11 C11        -11.7574  15.9188  71.8575 C.2            1 RES1               0.0000
     12 C12        -10.4459  16.4087  67.4590 C.3            1 RES1               0.0000
     13 C13         -9.6011  15.6429  66.4676 C.3            1 RES1               0.0000
     14 H14        -10.6992  15.2067  63.6175 H              1 RES1               0.0000
     15 H15        -10.0752  13.9920  65.2050 H              1 RES1               0.0000
     16 H16        -12.6397  15.3681  66.0554 H              1 RES1               0.0000
     17 H17        -12.2487  13.6422  65.8956 H              1 RES1               0.0000
     18 H18        -11.3285  13.4619  68.0203 H              1 RES1               0.0000
     19 H19        -12.7522  14.4976  68.2396 H              1 RES1               0.0000
     20 H20        -11.0614  17.0844  69.7495 H              1 RES1               0.0000
     21 H21        -12.5451  16.6749  68.8692 H              1 RES1               0.0000
     22 H22        -13.1809  13.8651  69.6263 H              1 RES1               0.0000
     23 H23        -13.7691  12.8348  71.9203 H              1 RES1               0.0000
     24 H24        -11.1679  16.8050  72.1346 H              1 RES1               0.0000
     25 H25        -11.2768  16.8687  66.8840 H              1 RES1               0.0000
     26 H26         -9.8040  17.1890  67.8964 H              1 RES1               0.0000
     27 H27         -8.9999  14.9173  67.0458 H              1 RES1               0.0000
     28 H28         -8.9495  16.2980  65.8567 H              1 RES1               0.0000
     29 ****       -10.2946  16.5166  64.5107 LP             1 RES1               0.0000
     30 ****       -11.8325  15.9678  64.5196 LP             1 RES1               0.0000
     31 ****       -10.2203  14.9433  68.9001 LP             1 RES1               0.0000
@<TRIPOS>BOND
    1    1    2 1     
    2    2    3 1     
    3    3    4 1     
    4    4    5 1     
    5    5    6 1     
    6    6    7 1     
    7    7    8 1     
    8    8    9 2     
    9    9   10 1     
   10   10   11 1     
   11    5   12 1     
   12   12   13 1     
   13   13    2 1     
   14    7   11 2     
   15    1   14 1     
   16    2   15 1     
   17    3   16 1     
   18    3   17 1     
   19    4   18 1     
   20    4   19 1     
   21    6   20 1     
   22    6   21 1     
   23    8   22 1     
   24    9   23 1     
   25   11   24 1     
   26   12   25 1     
   27   12   26 1     
   28   13   27 1     
   29   13   28 1     
   30    1   29 1     
   31    1   30 1     
   32    5   31 1     
@<TRIPOS>SUBSTRUCTURE
      1 RES1           1
@<TRIPOS>SET
LONE_PAIRS      STATIC     ATOMS    <user>   **** ""
3 29 30 31
DONOR_HYDROGENS      STATIC     ATOMS    <user>   **** ""
1 14
ATOM$BLUE        STATIC     ATOMS    COLORGROUP SYSTEM
3 29 30 31
ATOM$RED        STATIC     ATOMS    COLORGROUP SYSTEM
1 14
@<TRIPOS>COMMENT
> <Gold.Version>
2022.1.0

> <Gold.Id.Protein>
6LU7|6LU7_protein|mol2

> <Gold.Protein.RotatedTorsions>
[ 3973 1471 1470 1467 ] final  -30.35 input   60.00 | X-H torsion
[ 3372  414  413  411 ] final -140.06 input   60.00 | X-H torsion
[ 4268 1114 1113 1110 ] final  176.49 input   59.99 | X-H torsion
[ 4409  924  923  921 ] final -127.56 input   59.99 | X-H torsion
[ 4183 1244 1243 1241 ] final -172.62 input   59.99 | X-H torsion
[ 3800  178  177  174 ] final -106.54 input   60.00 | X-H torsion
[ 3793  171  170  167 ] final  -44.88 input   60.00 | X-H torsion
[ 3576  185  184  181 ] final -123.86 input   60.00 | X-H torsion
[ 3523  346  345  342 ] final  -82.15 input   60.01 | X-H torsion
[ 3515  339  338  335 ] final  151.78 input   60.00 | X-H torsion
[ 3663  154  153  150 ] final   65.13 input   60.00 | X-H torsion
[ 4280 1130 1129 1126 ] final  -35.54 input   60.00 | X-H torsion

> <Gold.Protein.ActiveResidues>
 VAL20   THR21   CYS22   GLY23   THR24   THR25   THR26   LEU27   ASN28   PRO39  
 ARG40   HIS41   VAL42   CYS44   THR45   SER46   ASP48   MET49   LEU50   PRO52  
 TYR54   TYR118  ASN119  ILE136  GLY138  SER139  PHE140  LEU141  ASN142  GLY143 
 SER144  CYS145  GLY146  SER147  TYR161  HIS163  HIS164  MET165  GLU166  LEU167 
 PRO168  THR169  GLY170  VAL171  HIS172  ALA173  PHE181  PHE185  VAL186  ASP187 
 ARG188  GLN189  THR190  ALA191  GLN192  ALA193 

> <Gold.Protein.RotatedAtoms>
  -15.5013   17.1643   75.6727 H   0  0  0  0  0  0  0  0  0  0  0  0  # atno 3372 bound_to 414 
   -2.8472   22.2106   75.2322 H   0  0  0  0  0  0  0  0  0  0  0  0  # atno 3515 bound_to 339 
   -3.1725   16.8585   72.5562 H   0  0  0  0  0  0  0  0  0  0  0  0  # atno 3523 bound_to 346 
   -7.4526   25.3313   63.0648 H   0  0  0  0  0  0  0  0  0  0  0  0  # atno 3576 bound_to 185 
   -8.4300   29.5763   65.0719 H   0  0  0  0  0  0  0  0  0  0  0  0  # atno 3663 bound_to 154 
   -3.0536   24.9624   72.5854 H   0  0  0  0  0  0  0  0  0  0  0  0  # atno 3793 bound_to 171 
   -7.1498   22.2871   71.6913 H   0  0  0  0  0  0  0  0  0  0  0  0  # atno 3800 bound_to 178 
  -14.9717    8.6326   76.9317 H   0  0  0  0  0  0  0  0  0  0  0  0  # atno 3973 bound_to 1471
  -19.8791   13.6403   63.2084 H   0  0  0  0  0  0  0  0  0  0  0  0  # atno 4183 bound_to 1244
  -13.4561   15.1635   60.7697 H   0  0  0  0  0  0  0  0  0  0  0  0  # atno 4268 bound_to 1114
  -16.3151   20.3371   58.5631 H   0  0  0  0  0  0  0  0  0  0  0  0  # atno 4280 bound_to 1130
  -11.6375   15.2845   58.0272 H   0  0  0  0  0  0  0  0  0  0  0  0  # atno 4409 bound_to 924 
  -15.4793    8.6915   78.4767 LP  0  0  0  0  0  0  0  0  0  0  0  0  # atno 4696 bound_to 1471
  -15.5859    7.2982   77.6318 LP  0  0  0  0  0  0  0  0  0  0  0  0  # atno 4697 bound_to 1471
  -14.0247   17.4486   76.2946 LP  0  0  0  0  0  0  0  0  0  0  0  0  # atno 4731 bound_to 414 
  -14.5644   18.3291   75.0297 LP  0  0  0  0  0  0  0  0  0  0  0  0  # atno 4732 bound_to 414 
  -14.0115   16.3218   61.7686 LP  0  0  0  0  0  0  0  0  0  0  0  0  # atno 4733 bound_to 1114
  -12.4457   15.8632   61.8362 LP  0  0  0  0  0  0  0  0  0  0  0  0  # atno 4734 bound_to 1114
  -10.3923   14.8902   57.0566 LP  0  0  0  0  0  0  0  0  0  0  0  0  # atno 4763 bound_to 924 
  -11.8324   15.3113   56.4119 LP  0  0  0  0  0  0  0  0  0  0  0  0  # atno 4764 bound_to 924 
  -20.8861   12.3818   63.4322 LP  0  0  0  0  0  0  0  0  0  0  0  0  # atno 4771 bound_to 1244
  -20.6055   13.4333   64.6497 LP  0  0  0  0  0  0  0  0  0  0  0  0  # atno 4772 bound_to 1244
   -7.3998   23.6652   72.5200 LP  0  0  0  0  0  0  0  0  0  0  0  0  # atno 4775 bound_to 178 
   -6.0641   23.4956   71.5961 LP  0  0  0  0  0  0  0  0  0  0  0  0  # atno 4776 bound_to 178 
   -1.7437   24.0121   72.4158 LP  0  0  0  0  0  0  0  0  0  0  0  0  # atno 4779 bound_to 171 
   -3.1614   23.5836   71.7279 LP  0  0  0  0  0  0  0  0  0  0  0  0  # atno 4780 bound_to 171 
   -7.6906   26.8333   63.6436 LP  0  0  0  0  0  0  0  0  0  0  0  0  # atno 4783 bound_to 185 
   -8.8119   25.6724   63.8918 LP  0  0  0  0  0  0  0  0  0  0  0  0  # atno 4784 bound_to 185 
   -1.7812   17.6128   72.9351 LP  0  0  0  0  0  0  0  0  0  0  0  0  # atno 4785 bound_to 346 
   -3.2070   18.3909   73.1028 LP  0  0  0  0  0  0  0  0  0  0  0  0  # atno 4786 bound_to 346 
   -3.6702   21.2940   74.1690 LP  0  0  0  0  0  0  0  0  0  0  0  0  # atno 4787 bound_to 339 
   -2.9531   20.6033   75.4633 LP  0  0  0  0  0  0  0  0  0  0  0  0  # atno 4788 bound_to 339 
   -7.6858   28.2016   65.5241 LP  0  0  0  0  0  0  0  0  0  0  0  0  # atno 4797 bound_to 154 
   -6.8047   29.5172   65.1251 LP  0  0  0  0  0  0  0  0  0  0  0  0  # atno 4798 bound_to 154 

> <Gold.Score>
     Score     S(PLP)   S(hbond)     S(cho)   S(metal)  DE(clash)   DE(tors)     intcor
     38.70     -35.82       1.00       0.00       0.00       0.00       0.06       0.00

> <Gold.PLP.Fitness>
38.6960

> <Gold.PLP.PLP>
-35.8192

> <Gold.PLP.part.hbond>
-1.1634

> <Gold.PLP.part.metal>
0.0000

> <Gold.PLP.part.buried>
-5.0751

> <Gold.PLP.part.nonpolar>
-30.3575

> <Gold.PLP.part.repulsive>
0.0940

> <Gold.PLP.ligand.clash>
0.0000

> <Gold.PLP.ligand.torsion>
0.0629

> <Gold.PLP.Chemscore.Hbond>
1.0000

> <Gold.PLP.Chemscore.CHOScore>
0.0000

> <Gold.PLP.Chemscore.Metal>
0.0000

> <Gold.Chemscore.Hbonds>
donor molecule, donor type, donor heavy atom, donor atom, acceptor molecule, acceptor atom, score
      L1  H     1    14       P1  1092  1.00

> <Gold.PLP.Chemscore.Internal.Correction>
0.0025

