#       Name:                xxxx
#       Creating user name   williammccorkindale
#       Creation time:       Sun May 22 19:49:22 2022


#       File generated by GOLD software.
#

@<TRIPOS>MOLECULE
xxxx|x0072|mol2|1|dock2
    26    26     1
SMALL
NO_CHARGES


@<TRIPOS>ATOM
      1 C01        -11.3761  15.6055  65.3694 C.3            1 LIG1101            0.0000
      2 S02         -9.9410  16.0055  66.4049 S.o2           1 LIG1101            0.0000
      3 O03         -9.1225  17.0699  65.8166 O.2            1 LIG1101            0.0000
      4 O04         -8.9725  14.9223  66.4115 O.2            1 LIG1101            0.0000
      5 N05        -10.4462  16.3784  67.9893 N.pl3          1 LIG1101            0.0000
      6 C06        -11.6946  15.8107  68.4288 C.3            1 LIG1101            0.0000
      7 C07        -11.5662  14.5445  69.2641 C.3            1 LIG1101            0.0000
      8 C08        -12.0712  14.9358  70.6442 C.ar           1 LIG1101            0.0000
      9 C09        -11.4201  15.8971  71.4060 C.ar           1 LIG1101            0.0000
     10 C10        -11.9285  16.2381  72.6483 C.ar           1 LIG1101            0.0000
     11 C11        -13.0919  15.6444  73.1121 C.ar           1 LIG1101            0.0000
     12 C12        -13.7454  14.6927  72.3406 C.ar           1 LIG1101            0.0000
     13 C13        -13.2312  14.3466  71.1070 C.ar           1 LIG1101            0.0000
     14 H1         -11.0356  15.2721  64.3902 H              1 LIG1101            0.0000
     15 H2         -11.9548  14.8131  65.8416 H              1 LIG1101            0.0000
     16 H3         -11.9992  16.4912  65.2548 H              1 LIG1101            0.0000
     17 H4          -9.8920  16.9741  68.5961 H              1 LIG1101            0.0000
     18 H5         -12.2878  15.5748  67.5466 H              1 LIG1101            0.0000
     19 H6         -12.2141  16.5584  69.0263 H              1 LIG1101            0.0000
     20 H7         -10.5274  14.2212  69.3133 H              1 LIG1101            0.0000
     21 H8         -12.1757  13.7452  68.8451 H              1 LIG1101            0.0000
     22 H9         -10.5184  16.3784  71.0301 H              1 LIG1101            0.0000
     23 H10        -11.4126  16.9747  73.2626 H              1 LIG1101            0.0000
     24 H11        -13.4946  15.9252  74.0842 H              1 LIG1101            0.0000
     25 H12        -14.6572  14.2225  72.7060 H              1 LIG1101            0.0000
     26 H13        -13.7431  13.6051  70.4955 H              1 LIG1101            0.0000
@<TRIPOS>BOND
    1    1    2 1     
    2    2    3 2     
    3    2    4 2     
    4    2    5 1     
    5    5    6 1     
    6    6    7 1     
    7    7    8 1     
    8    8    9 ar    
    9    9   10 ar    
   10   10   11 ar    
   11   11   12 ar    
   12    8   13 ar    
   13   12   13 ar    
   14    1   14 1     
   15    1   15 1     
   16    1   16 1     
   17    5   17 1     
   18    6   18 1     
   19    6   19 1     
   20    7   20 1     
   21    7   21 1     
   22    9   22 1     
   23   10   23 1     
   24   11   24 1     
   25   12   25 1     
   26   13   26 1     
@<TRIPOS>SUBSTRUCTURE
      1 LIG1101        1
@<TRIPOS>SET
LONE_PAIRS      STATIC     ATOMS    <user>   **** ""
2 3 4
DONOR_HYDROGENS      STATIC     ATOMS    <user>   **** ""
1 17
ATOM$BLUE        STATIC     ATOMS    COLORGROUP SYSTEM
2 3 4
ATOM$RED        STATIC     ATOMS    COLORGROUP SYSTEM
1 17
@<TRIPOS>COMMENT
> <Gold.Version>
2022.1.0

> <Gold.Id.Protein>
6LU7|6LU7_protein|mol2

> <Gold.Protein.RotatedTorsions>
[ 3973 1471 1470 1467 ] final   64.52 input   60.00 | X-H torsion
[ 3372  414  413  411 ] final  146.31 input   60.00 | X-H torsion
[ 4268 1114 1113 1110 ] final  -25.31 input   59.99 | X-H torsion
[ 4409  924  923  921 ] final   -6.35 input   59.99 | X-H torsion
[ 4183 1244 1243 1241 ] final   90.10 input   59.99 | X-H torsion
[ 3800  178  177  174 ] final   25.76 input   60.00 | X-H torsion
[ 3793  171  170  167 ] final   30.67 input   60.00 | X-H torsion
[ 3576  185  184  181 ] final  161.73 input   60.00 | X-H torsion
[ 3523  346  345  342 ] final   14.59 input   60.01 | X-H torsion
[ 3515  339  338  335 ] final -146.33 input   60.00 | X-H torsion
[ 3663  154  153  150 ] final -157.93 input   60.00 | X-H torsion
[ 4280 1130 1129 1126 ] final   26.92 input   60.00 | X-H torsion

> <Gold.Protein.ActiveResidues>
 VAL20   THR21   CYS22   GLY23   THR24   THR25   THR26   LEU27   ASN28   PRO39  
 ARG40   HIS41   VAL42   CYS44   THR45   SER46   ASP48   MET49   LEU50   PRO52  
 TYR54   TYR118  ASN119  ILE136  GLY138  SER139  PHE140  LEU141  ASN142  GLY143 
 SER144  CYS145  GLY146  SER147  TYR161  HIS163  HIS164  MET165  GLU166  LEU167 
 PRO168  THR169  GLY170  VAL171  HIS172  ALA173  PHE181  PHE185  VAL186  ASP187 
 ARG188  GLN189  THR190  ALA191  GLN192  ALA193 

> <Gold.Protein.RotatedAtoms>
  -14.6285   17.0268   76.3642 H   0  0  0  0  0  0  0  0  0  0  0  0  # atno 3372 bound_to 414 
   -2.6486   21.4174   75.7409 H   0  0  0  0  0  0  0  0  0  0  0  0  # atno 3515 bound_to 339 
   -3.4802   18.1507   72.9972 H   0  0  0  0  0  0  0  0  0  0  0  0  # atno 3523 bound_to 346 
   -7.2213   26.4202   63.2706 H   0  0  0  0  0  0  0  0  0  0  0  0  # atno 3576 bound_to 185 
   -6.7214   29.2669   65.2091 H   0  0  0  0  0  0  0  0  0  0  0  0  # atno 3663 bound_to 154 
   -3.5403   24.1439   71.9462 H   0  0  0  0  0  0  0  0  0  0  0  0  # atno 3793 bound_to 171 
   -6.1197   23.6552   71.7055 H   0  0  0  0  0  0  0  0  0  0  0  0  # atno 3800 bound_to 178 
  -15.4358    7.3761   77.2595 H   0  0  0  0  0  0  0  0  0  0  0  0  # atno 3973 bound_to 1471
  -20.6895   12.4943   63.1394 H   0  0  0  0  0  0  0  0  0  0  0  0  # atno 4183 bound_to 1244
  -12.8303   16.2595   62.1066 H   0  0  0  0  0  0  0  0  0  0  0  0  # atno 4268 bound_to 1114
  -15.8625   20.2022   59.4112 H   0  0  0  0  0  0  0  0  0  0  0  0  # atno 4280 bound_to 1130
  -11.8126   15.3075   56.4055 H   0  0  0  0  0  0  0  0  0  0  0  0  # atno 4409 bound_to 924 
  -14.9805    8.9374   77.2041 LP  0  0  0  0  0  0  0  0  0  0  0  0  # atno 4696 bound_to 1471
  -15.6174    8.3177   78.5742 LP  0  0  0  0  0  0  0  0  0  0  0  0  # atno 4697 bound_to 1471
  -13.9869   18.2381   75.4872 LP  0  0  0  0  0  0  0  0  0  0  0  0  # atno 4731 bound_to 414 
  -15.4812   17.6781   75.1408 LP  0  0  0  0  0  0  0  0  0  0  0  0  # atno 4732 bound_to 414 
  -12.8660   15.1272   60.9385 LP  0  0  0  0  0  0  0  0  0  0  0  0  # atno 4733 bound_to 1114
  -14.2216   15.9539   61.3199 LP  0  0  0  0  0  0  0  0  0  0  0  0  # atno 4734 bound_to 1114
  -11.6582   15.2883   58.0253 LP  0  0  0  0  0  0  0  0  0  0  0  0  # atno 4763 bound_to 924 
  -10.3902   14.8899   57.0766 LP  0  0  0  0  0  0  0  0  0  0  0  0  # atno 4764 bound_to 924 
  -20.8197   13.1304   64.6315 LP  0  0  0  0  0  0  0  0  0  0  0  0  # atno 4771 bound_to 1244
  -19.8557   13.8389   63.5200 LP  0  0  0  0  0  0  0  0  0  0  0  0  # atno 4772 bound_to 1244
   -6.9799   22.2793   71.5834 LP  0  0  0  0  0  0  0  0  0  0  0  0  # atno 4775 bound_to 178 
   -7.5213   23.5038   72.5183 LP  0  0  0  0  0  0  0  0  0  0  0  0  # atno 4776 bound_to 178 
   -2.3686   24.9170   72.7691 LP  0  0  0  0  0  0  0  0  0  0  0  0  # atno 4779 bound_to 171 
   -2.0463   23.5031   72.0184 LP  0  0  0  0  0  0  0  0  0  0  0  0  # atno 4780 bound_to 171 
   -8.6626   26.3752   64.0246 LP  0  0  0  0  0  0  0  0  0  0  0  0  # atno 4783 bound_to 185 
   -8.0728   25.0339   63.3037 LP  0  0  0  0  0  0  0  0  0  0  0  0  # atno 4784 bound_to 185 
   -2.8135   16.7388   72.5389 LP  0  0  0  0  0  0  0  0  0  0  0  0  # atno 4785 bound_to 346 
   -1.8648   17.9637   73.0548 LP  0  0  0  0  0  0  0  0  0  0  0  0  # atno 4786 bound_to 346 
   -3.3418   22.1563   74.4674 LP  0  0  0  0  0  0  0  0  0  0  0  0  # atno 4787 bound_to 339 
   -3.4814   20.5398   74.6526 LP  0  0  0  0  0  0  0  0  0  0  0  0  # atno 4788 bound_to 339 
   -8.2528   29.7795   65.0088 LP  0  0  0  0  0  0  0  0  0  0  0  0  # atno 4797 bound_to 154 
   -7.9584   28.2510   65.5023 LP  0  0  0  0  0  0  0  0  0  0  0  0  # atno 4798 bound_to 154 

> <Gold.Score>
     Score     S(PLP)   S(hbond)     S(cho)   S(metal)  DE(clash)   DE(tors)     intcor
     40.91     -38.96       1.00       0.00       0.00       0.00       1.07       1.10

> <Gold.PLP.Fitness>
40.9138

> <Gold.PLP.PLP>
-38.9615

> <Gold.PLP.part.hbond>
-1.0000

> <Gold.PLP.part.metal>
0.0000

> <Gold.PLP.part.buried>
-5.9050

> <Gold.PLP.part.nonpolar>
-32.8330

> <Gold.PLP.part.repulsive>
0.1249

> <Gold.PLP.ligand.clash>
0.0000

> <Gold.PLP.ligand.torsion>
1.0719

> <Gold.PLP.Chemscore.Hbond>
1.0000

> <Gold.PLP.Chemscore.CHOScore>
0.0000

> <Gold.PLP.Chemscore.Metal>
0.0000

> <Gold.Chemscore.Hbonds>
donor molecule, donor type, donor heavy atom, donor atom, acceptor molecule, acceptor atom, score
      P1  H  1105  4261       L1     3  1.00

> <Gold.PLP.Chemscore.Internal.Correction>
1.0962

