#       Name:                /Users/williammccorkindale/ml_physics/smi2wyck/notebooks/docking/mpro_fragments/prepared_Mpro-x2193.sdf
#       Creating user name   williammccorkindale
#       Creation time:       Tue Jun  7 14:44:34 2022


#       File generated by GOLD software.
#

@<TRIPOS>MOLECULE
/Users/williammccorkindale/ml_physics/smi2wyck/notebooks/docking/mpro_fragments/prepared_Mpro-x2193.sdf|gold_prepared_Mpro-x2193_m1|mol2|1|dock1
    33    34     1
_m1|mol2|1|dock1
NO_CHARGES


@<TRIPOS>ATOM
      1 ****       -11.1574  15.2331  64.8693 C.3            1 S1                 0.0000
      2 ****       -10.1451  16.1290  66.0300 S.o2           1 S1                 0.0000
      3 ****       -10.1681  17.5968  65.7103 O.2            1 S1                 0.0000
      4 ****        -8.7106  15.6245  65.9679 O.2            1 S1                 0.0000
      5 ****       -10.7673  15.8062  67.6385 C.ar           1 S1                 0.0000
      6 ****       -10.4987  16.6539  68.6905 C.ar           1 S1                 0.0000
      7 ****       -10.9822  16.4089  69.9560 C.ar           1 S1                 0.0000
      8 ****       -11.7630  15.2987  70.2364 C.ar           1 S1                 0.0000
      9 ****       -12.0380  14.4469  69.1974 C.ar           1 S1                 0.0000
     10 ****       -11.5431  14.7011  67.9114 C.ar           1 S1                 0.0000
     11 ****       -12.2816  15.0446  71.5213 N.pl3          1 S1                 0.0000
     12 ****       -11.5330  15.3920  72.6973 C.3            1 S1                 0.0000
     13 ****       -12.4081  16.2817  73.5701 C.3            1 S1                 0.0000
     14 ****       -13.6625  15.6498  73.8157 N.3            1 S1                 0.0000
     15 ****       -14.3887  15.3475  72.5939 C.3            1 S1                 0.0000
     16 ****       -13.5716  14.4113  71.7243 C.3            1 S1                 0.0000
     17 ****       -11.8772  15.9453  64.3839 H              1 S1                 0.0000
     18 ****       -11.7405  14.4304  65.3515 H              1 S1                 0.0000
     19 ****       -10.4972  14.7907  64.0923 H              1 S1                 0.0000
     20 ****        -9.8802  17.5381  68.4793 H              1 S1                 0.0000
     21 ****       -10.7421  17.1033  70.7562 H              1 S1                 0.0000
     22 ****       -12.6529  13.5777  69.3831 H              1 S1                 0.0000
     23 ****       -11.7775  14.0170  67.1312 H              1 S1                 0.0000
     24 ****       -11.4120  14.4457  73.2902 H              1 S1                 0.0000
     25 ****       -10.5623  15.8488  72.5233 H              1 S1                 0.0000
     26 ****       -12.4925  17.2623  73.0480 H              1 S1                 0.0000
     27 ****       -11.8775  16.3776  74.5396 H              1 S1                 0.0000
     28 ****       -14.2808  16.2150  74.4089 H              1 S1                 0.0000
     29 ****       -15.3499  14.8708  72.9102 H              1 S1                 0.0000
     30 ****       -14.5479  16.2784  72.0132 H              1 S1                 0.0000
     31 ****       -14.0809  14.2135  70.7868 H              1 S1                 0.0000
     32 ****       -13.3902  13.4449  72.2686 H              1 S1                 0.0000
     33 ****       -13.4223  14.8006  74.2859 LP             1 S1                 0.0000
@<TRIPOS>BOND
    1    1    2 1     
    2    2    3 2     
    3    2    4 2     
    4    2    5 1     
    5    5    6 ar    
    6    6    7 ar    
    7    7    8 ar    
    8    8    9 ar    
    9    9   10 ar    
   10    8   11 1     
   11   11   12 1     
   12   12   13 1     
   13   13   14 1     
   14   14   15 1     
   15   15   16 1     
   16   10    5 ar    
   17   16   11 1     
   18    1   17 1     
   19    1   18 1     
   20    1   19 1     
   21    6   20 1     
   22    7   21 1     
   23    9   22 1     
   24   10   23 1     
   25   12   24 1     
   26   12   25 1     
   27   13   26 1     
   28   13   27 1     
   29   14   28 1     
   30   15   29 1     
   31   15   30 1     
   32   16   31 1     
   33   16   32 1     
   34   14   33 1     
@<TRIPOS>SUBSTRUCTURE
      1 S1             1
@<TRIPOS>SET
LONE_PAIRS      STATIC     ATOMS    <user>   **** ""
3 3 4 33
DONOR_HYDROGENS      STATIC     ATOMS    <user>   **** ""
1 28
ATOM$BLUE        STATIC     ATOMS    COLORGROUP SYSTEM
3 3 4 33
ATOM$RED        STATIC     ATOMS    COLORGROUP SYSTEM
1 28
@<TRIPOS>COMMENT
> <Gold.Version>
2022.1.0

> <Gold.Id.Protein>
6LU7|6LU7_protein|mol2

> <Gold.Protein.RotatedTorsions>
[ 3973 1471 1470 1467 ] final  -53.14 input   60.00 | X-H torsion
[ 3372  414  413  411 ] final   31.16 input   60.00 | X-H torsion
[ 4268 1114 1113 1110 ] final  165.41 input   59.99 | X-H torsion
[ 4409  924  923  921 ] final -103.06 input   59.99 | X-H torsion
[ 4183 1244 1243 1241 ] final  126.28 input   59.99 | X-H torsion
[ 3800  178  177  174 ] final  147.55 input   60.00 | X-H torsion
[ 3793  171  170  167 ] final   40.23 input   60.00 | X-H torsion
[ 3576  185  184  181 ] final  -47.30 input   60.00 | X-H torsion
[ 3523  346  345  342 ] final  -72.97 input   60.01 | X-H torsion
[ 3515  339  338  335 ] final  178.27 input   60.00 | X-H torsion
[ 3663  154  153  150 ] final -147.06 input   60.00 | X-H torsion
[ 4280 1130 1129 1126 ] final  147.17 input   60.00 | X-H torsion

> <Gold.Protein.ActiveResidues>
 VAL20   THR21   CYS22   GLY23   THR24   THR25   THR26   LEU27   ASN28   PRO39  
 ARG40   HIS41   VAL42   CYS44   THR45   SER46   ASP48   MET49   LEU50   PRO52  
 TYR54   TYR118  ASN119  ILE136  GLY138  SER139  PHE140  LEU141  ASN142  GLY143 
 SER144  CYS145  GLY146  SER147  TYR161  HIS163  HIS164  MET165  GLU166  LEU167 
 PRO168  THR169  GLY170  VAL171  HIS172  ALA173  PHE181  PHE185  VAL186  ASP187 
 ARG188  GLN189  THR190  ALA191  GLN192  ALA193 

> <Gold.Protein.RotatedAtoms>
  -13.9539   18.2016   75.5500 H   0  0  0  0  0  0  0  0  0  0  0  0  # atno 3372 bound_to 414 
   -2.6963   21.9458   75.5343 H   0  0  0  0  0  0  0  0  0  0  0  0  # atno 3515 bound_to 339 
   -3.2971   16.9394   72.5755 H   0  0  0  0  0  0  0  0  0  0  0  0  # atno 3523 bound_to 346 
   -8.4849   25.1541   63.5631 H   0  0  0  0  0  0  0  0  0  0  0  0  # atno 3576 bound_to 185 
   -6.7061   29.0987   65.2630 H   0  0  0  0  0  0  0  0  0  0  0  0  # atno 3663 bound_to 154 
   -3.4973   24.0098   71.8788 H   0  0  0  0  0  0  0  0  0  0  0  0  # atno 3793 bound_to 171 
   -7.5332   23.4773   72.5100 H   0  0  0  0  0  0  0  0  0  0  0  0  # atno 3800 bound_to 178 
  -14.9770    8.9088   77.1776 H   0  0  0  0  0  0  0  0  0  0  0  0  # atno 3973 bound_to 1471
  -20.3184   12.8612   62.8832 H   0  0  0  0  0  0  0  0  0  0  0  0  # atno 4183 bound_to 1244
  -13.6257   15.2255   60.7751 H   0  0  0  0  0  0  0  0  0  0  0  0  # atno 4268 bound_to 1114
  -15.6522   18.6439   59.0070 H   0  0  0  0  0  0  0  0  0  0  0  0  # atno 4280 bound_to 1130
  -11.9483   15.3737   57.7965 H   0  0  0  0  0  0  0  0  0  0  0  0  # atno 4409 bound_to 924 
  -15.6063    8.3546   78.5722 LP  0  0  0  0  0  0  0  0  0  0  0  0  # atno 4696 bound_to 1471
  -15.4535    7.3569   77.2886 LP  0  0  0  0  0  0  0  0  0  0  0  0  # atno 4697 bound_to 1471
  -15.4472   17.7373   75.0997 LP  0  0  0  0  0  0  0  0  0  0  0  0  # atno 4731 bound_to 414 
  -14.7002   16.9958   76.3482 LP  0  0  0  0  0  0  0  0  0  0  0  0  # atno 4732 bound_to 414 
  -13.8861   16.3900   61.8815 LP  0  0  0  0  0  0  0  0  0  0  0  0  # atno 4733 bound_to 1114
  -12.4003   15.7325   61.7180 LP  0  0  0  0  0  0  0  0  0  0  0  0  # atno 4734 bound_to 1114
  -10.4271   14.9079   57.4548 LP  0  0  0  0  0  0  0  0  0  0  0  0  # atno 4763 bound_to 924 
  -11.4845   15.2037   56.2461 LP  0  0  0  0  0  0  0  0  0  0  0  0  # atno 4764 bound_to 924 
  -21.0335   12.6744   64.3329 LP  0  0  0  0  0  0  0  0  0  0  0  0  # atno 4771 bound_to 1244
  -20.0157   13.9254   64.0765 LP  0  0  0  0  0  0  0  0  0  0  0  0  # atno 4772 bound_to 1244
   -6.1234   23.6798   71.7228 LP  0  0  0  0  0  0  0  0  0  0  0  0  # atno 4775 bound_to 178 
   -6.9544   22.2825   71.5689 LP  0  0  0  0  0  0  0  0  0  0  0  0  # atno 4776 bound_to 178 
   -2.5165   24.9682   72.7548 LP  0  0  0  0  0  0  0  0  0  0  0  0  # atno 4779 bound_to 171 
   -1.9417   23.5869   72.1005 LP  0  0  0  0  0  0  0  0  0  0  0  0  # atno 4780 bound_to 171 
   -7.1511   25.9574   63.0903 LP  0  0  0  0  0  0  0  0  0  0  0  0  # atno 4783 bound_to 185 
   -8.3117   26.7268   63.9434 LP  0  0  0  0  0  0  0  0  0  0  0  0  # atno 4784 bound_to 185 
   -1.7903   17.4714   72.8834 LP  0  0  0  0  0  0  0  0  0  0  0  0  # atno 4785 bound_to 346 
   -3.0724   18.4509   73.1350 LP  0  0  0  0  0  0  0  0  0  0  0  0  # atno 4786 bound_to 346 
   -3.5878   21.7176   74.1922 LP  0  0  0  0  0  0  0  0  0  0  0  0  # atno 4787 bound_to 339 
   -3.1875   20.4464   75.1359 LP  0  0  0  0  0  0  0  0  0  0  0  0  # atno 4788 bound_to 339 
   -8.1066   29.8779   64.9808 LP  0  0  0  0  0  0  0  0  0  0  0  0  # atno 4797 bound_to 154 
   -8.1201   28.3219   65.4760 LP  0  0  0  0  0  0  0  0  0  0  0  0  # atno 4798 bound_to 154 

> <Gold.Score>
     Score     S(PLP)   S(hbond)     S(cho)   S(metal)  DE(clash)   DE(tors)     intcor
     48.40     -44.93       1.47       0.00       0.00       0.00       1.58       2.22

> <Gold.PLP.Fitness>
48.3985

> <Gold.PLP.PLP>
-44.9331

> <Gold.PLP.part.hbond>
-2.5180

> <Gold.PLP.part.metal>
0.0000

> <Gold.PLP.part.buried>
-5.5486

> <Gold.PLP.part.nonpolar>
-38.7942

> <Gold.PLP.part.repulsive>
0.1140

> <Gold.PLP.ligand.clash>
0.0000

> <Gold.PLP.ligand.torsion>
1.5833

> <Gold.PLP.Chemscore.Hbond>
1.4700

> <Gold.PLP.Chemscore.CHOScore>
0.0000

> <Gold.PLP.Chemscore.Metal>
0.0000

> <Gold.Chemscore.Hbonds>
donor molecule, donor type, donor heavy atom, donor atom, acceptor molecule, acceptor atom, score
      L1  H    14    28       P1  1441  0.56
      P1  H  1105  4261       L1     3  0.91

> <Gold.PLP.Chemscore.Internal.Correction>
2.2219

