#       Name:                unknown
#       Creating user name   williammccorkindale
#       Creation time:       Tue Jun  7 14:55:39 2022


#       File generated by GOLD software.
#

@<TRIPOS>MOLECULE
unknown|prepared_Mpro-x2193|mol2|1|dock2
    33    34     1
SMALL
NO_CHARGES


@<TRIPOS>ATOM
      1 C1         -12.0372  15.5157  64.6510 C.3            1 RES1               0.0000
      2 S2         -10.5539  15.5968  65.6489 S.o2           1 RES1               0.0000
      3 O3          -9.8849  16.9376  65.4269 O.2            1 RES1               0.0000
      4 O4          -9.6191  14.4773  65.3232 O.2            1 RES1               0.0000
      5 C5         -11.0594  15.5615  67.3237 C.ar           1 RES1               0.0000
      6 C6         -10.6506  16.5156  68.2304 C.ar           1 RES1               0.0000
      7 C7         -11.0392  16.5014  69.5498 C.ar           1 RES1               0.0000
      8 C8         -11.8765  15.5065  70.0360 C.ar           1 RES1               0.0000
      9 C9         -12.2883  14.5517  69.1380 C.ar           1 RES1               0.0000
     10 C10        -11.8903  14.5805  67.8221 C.ar           1 RES1               0.0000
     11 N11        -12.2902  15.4828  71.3981 N.pl3          1 RES1               0.0000
     12 C12        -13.3050  14.5245  71.7723 C.3            1 RES1               0.0000
     13 C13        -13.1994  14.3947  73.2993 C.3            1 RES1               0.0000
     14 N14        -13.5071  15.6928  73.8271 N.3            1 RES1               0.0000
     15 C15        -12.4033  16.5924  73.6055 C.3            1 RES1               0.0000
     16 C16        -11.6964  16.3959  72.3182 C.3            1 RES1               0.0000
     17 H17        -12.7505  16.2496  65.0789 H              1 RES1               0.0000
     18 H18        -11.8297  15.6805  63.5937 H              1 RES1               0.0000
     19 H19        -12.4861  14.5082  64.8563 H              1 RES1               0.0000
     20 H20         -9.9939  17.3037  67.8678 H              1 RES1               0.0000
     21 H21        -10.6966  17.2763  70.2559 H              1 RES1               0.0000
     22 H22        -12.9395  13.7688  69.4865 H              1 RES1               0.0000
     23 H23        -12.2121  13.8256  67.0992 H              1 RES1               0.0000
     24 H24        -14.3141  14.9456  71.5613 H              1 RES1               0.0000
     25 H25        -13.1562  13.5274  71.3107 H              1 RES1               0.0000
     26 H26        -13.9097  13.6149  73.6267 H              1 RES1               0.0000
     27 H27        -12.1677  14.1349  73.5573 H              1 RES1               0.0000
     28 H28        -14.3708  16.0392  73.3123 H              1 RES1               0.0000
     29 H29        -11.6943  16.4408  74.4677 H              1 RES1               0.0000
     30 H30        -12.7956  17.6213  73.7424 H              1 RES1               0.0000
     31 H31        -10.6405  16.1128  72.5091 H              1 RES1               0.0000
     32 H32        -11.6298  17.4160  71.8336 H              1 RES1               0.0000
     33 ****       -13.6721  15.6484  74.8124 LP             1 RES1               0.0000
@<TRIPOS>BOND
    1    1    2 1     
    2    2    3 2     
    3    2    4 2     
    4    2    5 1     
    5    5    6 ar    
    6    6    7 ar    
    7    7    8 ar    
    8    8    9 ar    
    9    9   10 ar    
   10    8   11 1     
   11   11   12 1     
   12   12   13 1     
   13   13   14 1     
   14   14   15 1     
   15   15   16 1     
   16   10    5 ar    
   17   16   11 1     
   18    1   17 1     
   19    1   18 1     
   20    1   19 1     
   21    6   20 1     
   22    7   21 1     
   23    9   22 1     
   24   10   23 1     
   25   12   24 1     
   26   12   25 1     
   27   13   26 1     
   28   13   27 1     
   29   14   28 1     
   30   15   29 1     
   31   15   30 1     
   32   16   31 1     
   33   16   32 1     
   34   14   33 1     
@<TRIPOS>SUBSTRUCTURE
      1 RES1           1
@<TRIPOS>SET
LONE_PAIRS      STATIC     ATOMS    <user>   **** ""
3 3 4 33
DONOR_HYDROGENS      STATIC     ATOMS    <user>   **** ""
1 28
ATOM$BLUE        STATIC     ATOMS    COLORGROUP SYSTEM
3 3 4 33
ATOM$RED        STATIC     ATOMS    COLORGROUP SYSTEM
1 28
@<TRIPOS>COMMENT
> <Gold.Version>
2022.1.0

> <Gold.Id.Protein>
6LU7|6LU7_protein|mol2

> <Gold.Protein.RotatedTorsions>
[ 3973 1471 1470 1467 ] final  -37.65 input   60.00 | X-H torsion
[ 3372  414  413  411 ] final -161.46 input   60.00 | X-H torsion
[ 4268 1114 1113 1110 ] final -137.49 input   59.99 | X-H torsion
[ 4409  924  923  921 ] final -142.55 input   59.99 | X-H torsion
[ 4183 1244 1243 1241 ] final  124.42 input   59.99 | X-H torsion
[ 3800  178  177  174 ] final  -89.48 input   60.00 | X-H torsion
[ 3793  171  170  167 ] final   53.46 input   60.00 | X-H torsion
[ 3576  185  184  181 ] final -166.93 input   60.00 | X-H torsion
[ 3523  346  345  342 ] final   81.96 input   60.01 | X-H torsion
[ 3515  339  338  335 ] final   43.95 input   60.00 | X-H torsion
[ 3663  154  153  150 ] final   74.91 input   60.00 | X-H torsion
[ 4280 1130 1129 1126 ] final  -39.97 input   60.00 | X-H torsion

> <Gold.Protein.ActiveResidues>
 VAL20   THR21   CYS22   GLY23   THR24   THR25   THR26   LEU27   ASN28   PRO39  
 ARG40   HIS41   VAL42   CYS44   THR45   SER46   ASP48   MET49   LEU50   PRO52  
 TYR54   TYR118  ASN119  ILE136  GLY138  SER139  PHE140  LEU141  ASN142  GLY143 
 SER144  CYS145  GLY146  SER147  TYR161  HIS163  HIS164  MET165  GLU166  LEU167 
 PRO168  THR169  GLY170  VAL171  HIS172  ALA173  PHE181  PHE185  VAL186  ASP187 
 ARG188  GLN189  THR190  ALA191  GLN192  ALA193 

> <Gold.Protein.RotatedAtoms>
  -15.3331   17.0134   75.9370 H   0  0  0  0  0  0  0  0  0  0  0  0  # atno 3372 bound_to 414 
   -3.6437   21.4916   74.1655 H   0  0  0  0  0  0  0  0  0  0  0  0  # atno 3515 bound_to 339 
   -2.5114   18.4714   73.1891 H   0  0  0  0  0  0  0  0  0  0  0  0  # atno 3523 bound_to 346 
   -7.1566   25.9508   63.0940 H   0  0  0  0  0  0  0  0  0  0  0  0  # atno 3576 bound_to 185 
   -8.3327   29.6975   65.0355 H   0  0  0  0  0  0  0  0  0  0  0  0  # atno 3663 bound_to 154 
   -3.3995   23.8333   71.8026 H   0  0  0  0  0  0  0  0  0  0  0  0  # atno 3793 bound_to 171 
   -6.9129   22.2965   71.5466 H   0  0  0  0  0  0  0  0  0  0  0  0  # atno 3800 bound_to 178 
  -14.9670    8.7306   76.9993 H   0  0  0  0  0  0  0  0  0  0  0  0  # atno 3973 bound_to 1471
  -20.3374   12.8380   62.8885 H   0  0  0  0  0  0  0  0  0  0  0  0  # atno 4183 bound_to 1244
  -12.7638   15.1635   61.0072 H   0  0  0  0  0  0  0  0  0  0  0  0  # atno 4268 bound_to 1114
  -16.3377   20.3072   58.5013 H   0  0  0  0  0  0  0  0  0  0  0  0  # atno 4280 bound_to 1130
  -11.4122   15.2180   58.0935 H   0  0  0  0  0  0  0  0  0  0  0  0  # atno 4409 bound_to 924 
  -15.5233    8.5895   78.5220 LP  0  0  0  0  0  0  0  0  0  0  0  0  # atno 4696 bound_to 1471
  -15.5467    7.3015   77.5184 LP  0  0  0  0  0  0  0  0  0  0  0  0  # atno 4697 bound_to 1471
  -13.8727   17.7087   76.1160 LP  0  0  0  0  0  0  0  0  0  0  0  0  # atno 4731 bound_to 414 
  -14.8857   18.2210   74.9422 LP  0  0  0  0  0  0  0  0  0  0  0  0  # atno 4732 bound_to 414 
  -14.2161   15.8632   61.2289 LP  0  0  0  0  0  0  0  0  0  0  0  0  # atno 4733 bound_to 1114
  -12.9385   16.3218   62.1367 LP  0  0  0  0  0  0  0  0  0  0  0  0  # atno 4734 bound_to 1114
  -10.4514   14.9036   56.8184 LP  0  0  0  0  0  0  0  0  0  0  0  0  # atno 4763 bound_to 924 
  -12.0002   15.3649   56.5834 LP  0  0  0  0  0  0  0  0  0  0  0  0  # atno 4764 bound_to 924 
  -21.0275   12.6947   64.3552 LP  0  0  0  0  0  0  0  0  0  0  0  0  # atno 4771 bound_to 1244
  -20.0025   13.9284   64.0490 LP  0  0  0  0  0  0  0  0  0  0  0  0  # atno 4772 bound_to 1244
   -7.5606   23.4365   72.5104 LP  0  0  0  0  0  0  0  0  0  0  0  0  # atno 4775 bound_to 178 
   -6.1418   23.7149   71.7514 LP  0  0  0  0  0  0  0  0  0  0  0  0  # atno 4776 bound_to 178 
   -2.7266   25.0031   72.7119 LP  0  0  0  0  0  0  0  0  0  0  0  0  # atno 4779 bound_to 171 
   -1.8301   23.7298   72.2201 LP  0  0  0  0  0  0  0  0  0  0  0  0  # atno 4780 bound_to 171 
   -8.3067   26.7298   63.9416 LP  0  0  0  0  0  0  0  0  0  0  0  0  # atno 4783 bound_to 185 
   -8.4940   25.1520   63.5645 LP  0  0  0  0  0  0  0  0  0  0  0  0  # atno 4784 bound_to 185 
   -3.6204   17.3825   72.7071 LP  0  0  0  0  0  0  0  0  0  0  0  0  # atno 4785 bound_to 346 
   -2.0336   16.9969   72.6934 LP  0  0  0  0  0  0  0  0  0  0  0  0  # atno 4786 bound_to 346 
   -3.0584   20.5083   75.3224 LP  0  0  0  0  0  0  0  0  0  0  0  0  # atno 4787 bound_to 339 
   -2.7627   22.1131   75.3843 LP  0  0  0  0  0  0  0  0  0  0  0  0  # atno 4788 bound_to 339 
   -7.8452   28.2207   65.5145 LP  0  0  0  0  0  0  0  0  0  0  0  0  # atno 4797 bound_to 154 
   -6.7433   29.3760   65.1715 LP  0  0  0  0  0  0  0  0  0  0  0  0  # atno 4798 bound_to 154 

> <Gold.Score>
     Score     S(PLP)   S(hbond)     S(cho)   S(metal)  DE(clash)   DE(tors)     intcor
     45.16     -42.38       1.00       0.00       0.00       0.00       1.19       2.17

> <Gold.PLP.Fitness>
45.1647

> <Gold.PLP.PLP>
-42.3779

> <Gold.PLP.part.hbond>
-2.4404

> <Gold.PLP.part.metal>
0.0000

> <Gold.PLP.part.buried>
-4.4949

> <Gold.PLP.part.nonpolar>
-38.0076

> <Gold.PLP.part.repulsive>
1.2594

> <Gold.PLP.ligand.clash>
0.0000

> <Gold.PLP.ligand.torsion>
1.1904

> <Gold.PLP.Chemscore.Hbond>
1.0000

> <Gold.PLP.Chemscore.CHOScore>
0.0000

> <Gold.PLP.Chemscore.Metal>
0.0000

> <Gold.Chemscore.Hbonds>
donor molecule, donor type, donor heavy atom, donor atom, acceptor molecule, acceptor atom, score
      P1  H  1105  4261       L1     3  1.00

> <Gold.PLP.Chemscore.Internal.Correction>
2.1677

