unknown|prepared_Mpro-x0104|sdf|1|dock1
  -GOLD-   5 72214353D 1   1.00000     0.00000

 29 30  0  0  0  0  0  0  0  0  1 V2000
   -7.5985   19.2949   66.0940 C   0  0  0  0  0  0  0  0  0  0  0  0
   -8.5610   18.2428   66.4204 C   0  0  0  0  0  0  0  0  0  0  0  0
   -8.8605   17.4047   65.5261 O   0  0  0  0  0  0  0  0  0  0  0  0
   -9.1945   18.0859   67.6786 N   0  0  0  0  0  0  0  0  0  0  0  0
  -10.1290   17.0493   67.9658 C   0  0  0  0  0  0  0  0  0  0  0  0
  -10.5014   16.9366   69.4108 C   0  0  0  0  0  0  0  0  0  0  0  0
  -11.3021   15.7504   69.7310 C   0  0  0  0  0  0  0  0  0  0  0  0
  -11.7027   14.7115   68.9238 C   0  0  0  0  0  0  0  0  0  0  0  0
  -12.4305   13.8211   69.6230 N   0  0  0  0  0  0  0  0  0  0  0  0
  -12.5003   14.2859   70.8846 C   0  0  0  0  0  0  0  0  0  0  0  0
  -13.1314   13.7399   71.9823 C   0  0  0  0  0  0  0  0  0  0  0  0
  -13.0705   14.4029   73.2016 C   0  0  0  0  0  0  0  0  0  0  0  0
  -12.3811   15.6109   73.3314 C   0  0  0  0  0  0  0  0  0  0  0  0
  -12.3019   16.2791   74.4961 F   0  0  0  0  0  0  0  0  0  0  0  0
  -11.7678   16.1172   72.2124 C   0  0  0  0  0  0  0  0  0  0  0  0
  -11.8109   15.4798   70.9840 C   0  0  0  0  0  0  0  0  0  0  0  0
   -7.7570   20.2405   66.6652 H   0  0  0  0  0  0  0  0  0  0  0  0
   -7.7398   19.5673   65.0224 H   0  0  0  0  0  0  0  0  0  0  0  0
   -6.5442   19.0038   66.2722 H   0  0  0  0  0  0  0  0  0  0  0  0
   -8.9515   18.7741   68.4203 H   0  0  0  0  0  0  0  0  0  0  0  0
  -11.0270   17.2036   67.3347 H   0  0  0  0  0  0  0  0  0  0  0  0
   -9.7214   16.0471   67.6546 H   0  0  0  0  0  0  0  0  0  0  0  0
  -10.9794   17.8644   69.7793 H   0  0  0  0  0  0  0  0  0  0  0  0
   -9.5372   16.8572   69.9936 H   0  0  0  0  0  0  0  0  0  0  0  0
  -11.4836   14.5940   67.8755 H   0  0  0  0  0  0  0  0  0  0  0  0
  -12.8478   12.9471   69.2340 H   0  0  0  0  0  0  0  0  0  0  0  0
  -13.6798   12.7991   71.9221 H   0  0  0  0  0  0  0  0  0  0  0  0
  -13.5609   13.9774   74.0517 H   0  0  0  0  0  0  0  0  0  0  0  0
  -11.2311   17.0626   72.3243 H   0  0  0  0  0  0  0  0  0  0  0  0
  1  2  1  0  0  0  0
  2  3  2  0  0  0  0
  2  4  1  0  0  0  0
  4  5  1  0  0  0  0
  5  6  1  0  0  0  0
  6  7  1  0  0  0  0
  7  8  2  0  0  0  0
  8  9  1  0  0  0  0
  9 10  1  0  0  0  0
 10 11  2  0  0  0  0
 11 12  1  0  0  0  0
 12 13  2  0  0  0  0
 13 14  1  0  0  0  0
 13 15  1  0  0  0  0
 15 16  2  0  0  0  0
 16  7  1  0  0  0  0
 10 16  1  0  0  0  0
  1 17  1  0  0  0  0
  1 18  1  0  0  0  0
  1 19  1  0  0  0  0
  4 20  1  0  0  0  0
  5 21  1  0  0  0  0
  5 22  1  0  0  0  0
  6 23  1  0  0  0  0
  6 24  1  0  0  0  0
  8 25  1  0  0  0  0
  9 26  1  0  0  0  0
 11 27  1  0  0  0  0
 12 28  1  0  0  0  0
 15 29  1  0  0  0  0
M  END
> <Gold.Version>
2022.1.0

> <Gold.Id.Protein>
6LU7|6LU7_protein|mol2

> <Gold.PLP.Fitness>
50.4669

> <Gold.PLP.PLP>
-47.6048

> <Gold.PLP.part.hbond>
-1.0000

> <Gold.PLP.part.metal>
0.0000

> <Gold.PLP.part.buried>
-5.5574

> <Gold.PLP.part.nonpolar>
-42.0809

> <Gold.PLP.part.repulsive>
0.0885

> <Gold.PLP.ligand.clash>
0.0000

> <Gold.PLP.ligand.torsion>
0.0728

> <Gold.PLP.Chemscore.Hbond>
1.0000

> <Gold.PLP.Chemscore.CHOScore>
0.0000

> <Gold.PLP.Chemscore.Metal>
0.0000

> <Gold.Chemscore.Hbonds>
donor molecule, donor type, donor heavy atom, donor atom, acceptor molecule, acceptor atom, score
      P1  H  1105  4261       L1     3  1.00

> <Gold.PLP.Chemscore.Internal.Correction>
0.0077

> <Gold.Protein.RotatedTorsions>
[ 3973 1471 1470 1467 ] final  -69.08 input   60.00 | X-H torsion
[ 3372  414  413  411 ] final   17.85 input   60.00 | X-H torsion
[ 4268 1114 1113 1110 ] final -166.16 input   59.99 | X-H torsion
[ 4409  924  923  921 ] final  146.38 input   59.99 | X-H torsion
[ 4183 1244 1243 1241 ] final  -21.75 input   59.99 | X-H torsion
[ 3800  178  177  174 ] final   31.69 input   60.00 | X-H torsion
[ 3793  171  170  167 ] final   67.00 input   60.00 | X-H torsion
[ 3576  185  184  181 ] final   32.22 input   60.00 | X-H torsion
[ 3523  346  345  342 ] final -144.74 input   60.01 | X-H torsion
[ 3515  339  338  335 ] final  -32.66 input   60.00 | X-H torsion
[ 3663  154  153  150 ] final -104.94 input   60.00 | X-H torsion
[ 4280 1130 1129 1126 ] final -155.85 input   60.00 | X-H torsion

> <Gold.Protein.ActiveResidues>
 VAL20   THR21   CYS22   GLY23   THR24   THR25   THR26   LEU27   ASN28   PRO39  
 ARG40   HIS41   VAL42   CYS44   THR45   SER46   ASP48   MET49   LEU50   PRO52  
 TYR54   TYR118  ASN119  ILE136  GLY138  SER139  PHE140  LEU141  ASN142  GLY143 
 SER144  CYS145  GLY146  SER147  TYR161  HIS163  HIS164  MET165  GLU166  LEU167 
 PRO168  THR169  GLY170  VAL171  HIS172  ALA173  PHE181  PHE185  VAL186  ASP187 
 ARG188  GLN189  THR190  ALA191  GLN192  ALA193 

> <Gold.Protein.RotatedAtoms>
  -14.0725   18.2846   75.3884 H   0  0  0  0  0  0  0  0  0  0  0  0  # atno 3372 bound_to 414 
   -3.4349   20.5043   74.7387 H   0  0  0  0  0  0  0  0  0  0  0  0  # atno 3515 bound_to 339 
   -2.2033   16.8726   72.6377 H   0  0  0  0  0  0  0  0  0  0  0  0  # atno 3523 bound_to 346 
   -8.7286   26.2339   64.0199 H   0  0  0  0  0  0  0  0  0  0  0  0  # atno 3576 bound_to 185 
   -6.9531   28.5006   65.4478 H   0  0  0  0  0  0  0  0  0  0  0  0  # atno 3663 bound_to 154 
   -3.2584   23.6723   71.7489 H   0  0  0  0  0  0  0  0  0  0  0  0  # atno 3793 bound_to 171 
   -6.1558   23.7251   71.7622 H   0  0  0  0  0  0  0  0  0  0  0  0  # atno 3800 bound_to 178 
  -15.0152    9.0390   77.3991 H   0  0  0  0  0  0  0  0  0  0  0  0  # atno 3973 bound_to 1471
  -20.8830   13.0224   64.5847 H   0  0  0  0  0  0  0  0  0  0  0  0  # atno 4183 bound_to 1244
  -13.1814   15.1132   60.8125 H   0  0  0  0  0  0  0  0  0  0  0  0  # atno 4268 bound_to 1114
  -16.0686   18.7677   58.2267 H   0  0  0  0  0  0  0  0  0  0  0  0  # atno 4280 bound_to 1130
  -10.4883   14.9311   57.5951 H   0  0  0  0  0  0  0  0  0  0  0  0  # atno 4409 bound_to 924 
  -15.6719    8.1020   78.5561 LP  0  0  0  0  0  0  0  0  0  0  0  0  # atno 4696 bound_to 1471
  -15.3495    7.4784   77.0817 LP  0  0  0  0  0  0  0  0  0  0  0  0  # atno 4697 bound_to 1471
  -15.5271   17.5743   75.2213 LP  0  0  0  0  0  0  0  0  0  0  0  0  # atno 4731 bound_to 414 
  -14.5009   17.0753   76.3894 LP  0  0  0  0  0  0  0  0  0  0  0  0  # atno 4732 bound_to 414 
  -14.1537   16.1756   61.5702 LP  0  0  0  0  0  0  0  0  0  0  0  0  # atno 4733 bound_to 1114
  -12.5802   16.0600   61.9916 LP  0  0  0  0  0  0  0  0  0  0  0  0  # atno 4734 bound_to 1114
  -11.3373   15.1591   56.2258 LP  0  0  0  0  0  0  0  0  0  0  0  0  # atno 4763 bound_to 924 
  -12.0448   15.3982   57.6779 LP  0  0  0  0  0  0  0  0  0  0  0  0  # atno 4764 bound_to 924 
  -19.8724   13.8844   63.6447 LP  0  0  0  0  0  0  0  0  0  0  0  0  # atno 4771 bound_to 1244
  -20.6081   12.5529   63.0511 LP  0  0  0  0  0  0  0  0  0  0  0  0  # atno 4772 bound_to 1244
   -6.8953   22.2931   71.5368 LP  0  0  0  0  0  0  0  0  0  0  0  0  # atno 4775 bound_to 178 
   -7.5696   23.4196   72.5079 LP  0  0  0  0  0  0  0  0  0  0  0  0  # atno 4776 bound_to 178 
   -2.9375   24.9939   72.6423 LP  0  0  0  0  0  0  0  0  0  0  0  0  # atno 4779 bound_to 171 
   -1.7613   23.9012   72.3439 LP  0  0  0  0  0  0  0  0  0  0  0  0  # atno 4780 bound_to 171 
   -7.9336   25.0511   63.2345 LP  0  0  0  0  0  0  0  0  0  0  0  0  # atno 4783 bound_to 185 
   -7.2838   26.5455   63.3391 LP  0  0  0  0  0  0  0  0  0  0  0  0  # atno 4784 bound_to 185 
   -2.3047   18.4040   73.1787 LP  0  0  0  0  0  0  0  0  0  0  0  0  # atno 4785 bound_to 346 
   -3.6595   17.5855   72.7771 LP  0  0  0  0  0  0  0  0  0  0  0  0  # atno 4786 bound_to 346 
   -2.6373   21.5201   75.7285 LP  0  0  0  0  0  0  0  0  0  0  0  0  # atno 4787 bound_to 339 
   -3.3941   22.0956   74.4008 LP  0  0  0  0  0  0  0  0  0  0  0  0  # atno 4788 bound_to 339 
   -7.4364   29.9774   64.9643 LP  0  0  0  0  0  0  0  0  0  0  0  0  # atno 4797 bound_to 154 
   -8.5415   28.8248   65.3063 LP  0  0  0  0  0  0  0  0  0  0  0  0  # atno 4798 bound_to 154 

$$$$
