#       Name:                unknown
#       Creating user name   williammccorkindale
#       Creation time:       Tue Jun  7 14:55:39 2022


#       File generated by GOLD software.
#

@<TRIPOS>MOLECULE
unknown|prepared_Mpro-x2193|mol2|1|dock3
    33    34     1
SMALL
NO_CHARGES


@<TRIPOS>ATOM
      1 C1          -9.5128  18.9008  66.3939 C.3            1 RES1               0.0000
      2 S2          -9.6711  17.1206  66.3026 S.o2           1 RES1               0.0000
      3 O3          -8.2874  16.5047  66.2781 O.2            1 RES1               0.0000
      4 O4         -10.4570  16.7068  65.1008 O.2            1 RES1               0.0000
      5 C5         -10.4259  16.5953  67.7913 C.ar           1 RES1               0.0000
      6 C6         -11.3020  15.5321  67.8306 C.ar           1 RES1               0.0000
      7 C7         -11.9032  15.1074  68.9926 C.ar           1 RES1               0.0000
      8 C8         -11.6493  15.7429  70.2005 C.ar           1 RES1               0.0000
      9 C9         -10.7769  16.8040  70.1693 C.ar           1 RES1               0.0000
     10 C10        -10.1845  17.2157  68.9987 C.ar           1 RES1               0.0000
     11 N11        -12.2611  15.3106  71.4112 N.pl3          1 RES1               0.0000
     12 C12        -13.4032  14.4315  71.3066 C.3            1 RES1               0.0000
     13 C13        -13.5377  13.7727  72.6878 C.3            1 RES1               0.0000
     14 N14        -13.8012  14.8402  73.6093 N.3            1 RES1               0.0000
     15 C15        -12.5996  15.6004  73.8439 C.3            1 RES1               0.0000
     16 C16        -11.7300  15.7620  72.6550 C.3            1 RES1               0.0000
     17 H17         -9.0941  19.1333  67.3945 H              1 RES1               0.0000
     18 H18         -8.9189  19.3024  65.5729 H              1 RES1               0.0000
     19 H19        -10.5619  19.2982  66.4096 H              1 RES1               0.0000
     20 H20        -11.5134  15.0211  66.8936 H              1 RES1               0.0000
     21 H21        -12.6021  14.2543  68.9969 H              1 RES1               0.0000
     22 H22        -10.5599  17.3149  71.0914 H              1 RES1               0.0000
     23 H23         -9.4889  18.0589  68.9627 H              1 RES1               0.0000
     24 H24        -14.3273  15.0338  71.1539 H              1 RES1               0.0000
     25 H25        -13.2787  13.6427  70.5374 H              1 RES1               0.0000
     26 H26        -14.3567  13.0334  72.6363 H              1 RES1               0.0000
     27 H27        -12.5838  13.3009  72.9443 H              1 RES1               0.0000
     28 H28        -14.5437  15.4575  73.1636 H              1 RES1               0.0000
     29 H29        -12.0432  15.0663  74.6651 H              1 RES1               0.0000
     30 H30        -12.9126  16.5635  74.2974 H              1 RES1               0.0000
     31 H31        -10.7444  15.2883  72.8435 H              1 RES1               0.0000
     32 H32        -11.4998  16.8669  72.5779 H              1 RES1               0.0000
     33 ****       -14.1140  14.4838  74.4897 LP             1 RES1               0.0000
@<TRIPOS>BOND
    1    1    2 1     
    2    2    3 2     
    3    2    4 2     
    4    2    5 1     
    5    5    6 ar    
    6    6    7 ar    
    7    7    8 ar    
    8    8    9 ar    
    9    9   10 ar    
   10    8   11 1     
   11   11   12 1     
   12   12   13 1     
   13   13   14 1     
   14   14   15 1     
   15   15   16 1     
   16   10    5 ar    
   17   16   11 1     
   18    1   17 1     
   19    1   18 1     
   20    1   19 1     
   21    6   20 1     
   22    7   21 1     
   23    9   22 1     
   24   10   23 1     
   25   12   24 1     
   26   12   25 1     
   27   13   26 1     
   28   13   27 1     
   29   14   28 1     
   30   15   29 1     
   31   15   30 1     
   32   16   31 1     
   33   16   32 1     
   34   14   33 1     
@<TRIPOS>SUBSTRUCTURE
      1 RES1           1
@<TRIPOS>SET
LONE_PAIRS      STATIC     ATOMS    <user>   **** ""
3 3 4 33
DONOR_HYDROGENS      STATIC     ATOMS    <user>   **** ""
1 28
ATOM$BLUE        STATIC     ATOMS    COLORGROUP SYSTEM
3 3 4 33
ATOM$RED        STATIC     ATOMS    COLORGROUP SYSTEM
1 28
@<TRIPOS>COMMENT
> <Gold.Version>
2022.1.0

> <Gold.Id.Protein>
6LU7|6LU7_protein|mol2

> <Gold.Protein.RotatedTorsions>
[ 3973 1471 1470 1467 ] final  -11.13 input   60.00 | X-H torsion
[ 3372  414  413  411 ] final  153.69 input   60.00 | X-H torsion
[ 4268 1114 1113 1110 ] final  144.03 input   59.99 | X-H torsion
[ 4409  924  923  921 ] final -153.82 input   59.99 | X-H torsion
[ 4183 1244 1243 1241 ] final -104.33 input   59.99 | X-H torsion
[ 3800  178  177  174 ] final   -0.20 input   60.00 | X-H torsion
[ 3793  171  170  167 ] final -131.84 input   60.00 | X-H torsion
[ 3576  185  184  181 ] final   76.24 input   60.00 | X-H torsion
[ 3523  346  345  342 ] final -177.63 input   60.01 | X-H torsion
[ 3515  339  338  335 ] final   51.89 input   60.00 | X-H torsion
[ 3663  154  153  150 ] final -138.46 input   60.00 | X-H torsion
[ 4280 1130 1129 1126 ] final -106.33 input   60.00 | X-H torsion

> <Gold.Protein.ActiveResidues>
 VAL20   THR21   CYS22   GLY23   THR24   THR25   THR26   LEU27   ASN28   PRO39  
 ARG40   HIS41   VAL42   CYS44   THR45   SER46   ASP48   MET49   LEU50   PRO52  
 TYR54   TYR118  ASN119  ILE136  GLY138  SER139  PHE140  LEU141  ASN142  GLY143 
 SER144  CYS145  GLY146  SER147  TYR161  HIS163  HIS164  MET165  GLU166  LEU167 
 PRO168  THR169  GLY170  VAL171  HIS172  ALA173  PHE181  PHE185  VAL186  ASP187 
 ARG188  GLN189  THR190  ALA191  GLN192  ALA193 

> <Gold.Protein.RotatedAtoms>
  -14.7390   16.9907   76.3330 H   0  0  0  0  0  0  0  0  0  0  0  0  # atno 3372 bound_to 414 
   -3.6156   21.6176   74.1779 H   0  0  0  0  0  0  0  0  0  0  0  0  # atno 3515 bound_to 339 
   -1.8646   17.2469   72.7992 H   0  0  0  0  0  0  0  0  0  0  0  0  # atno 3523 bound_to 346 
   -8.2603   26.7478   63.9250 H   0  0  0  0  0  0  0  0  0  0  0  0  # atno 3576 bound_to 185 
   -6.7178   28.9653   65.3052 H   0  0  0  0  0  0  0  0  0  0  0  0  # atno 3663 bound_to 154 
   -1.8632   24.4750   72.6546 H   0  0  0  0  0  0  0  0  0  0  0  0  # atno 3793 bound_to 171 
   -6.0598   23.2968   71.4940 H   0  0  0  0  0  0  0  0  0  0  0  0  # atno 3800 bound_to 178 
  -15.0125    8.3460   76.8139 H   0  0  0  0  0  0  0  0  0  0  0  0  # atno 3973 bound_to 1471
  -20.0936   13.8938   64.2054 H   0  0  0  0  0  0  0  0  0  0  0  0  # atno 4183 bound_to 1244
  -13.9141   15.4012   60.8560 H   0  0  0  0  0  0  0  0  0  0  0  0  # atno 4268 bound_to 1114
  -16.3758   19.4381   57.9600 H   0  0  0  0  0  0  0  0  0  0  0  0  # atno 4280 bound_to 1130
  -11.2362   15.1652   58.1020 H   0  0  0  0  0  0  0  0  0  0  0  0  # atno 4409 bound_to 924 
  -15.3550    8.9189   78.2980 LP  0  0  0  0  0  0  0  0  0  0  0  0  # atno 4696 bound_to 1471
  -15.6691    7.3594   77.9291 LP  0  0  0  0  0  0  0  0  0  0  0  0  # atno 4697 bound_to 1471
  -13.9295   18.1845   75.5795 LP  0  0  0  0  0  0  0  0  0  0  0  0  # atno 4731 bound_to 414 
  -15.4273   17.7680   75.0799 LP  0  0  0  0  0  0  0  0  0  0  0  0  # atno 4732 bound_to 414 
  -13.5876   16.4559   62.0514 LP  0  0  0  0  0  0  0  0  0  0  0  0  # atno 4733 bound_to 1114
  -12.4083   15.4896   61.4665 LP  0  0  0  0  0  0  0  0  0  0  0  0  # atno 4734 bound_to 1114
  -10.5338   14.9253   56.6539 LP  0  0  0  0  0  0  0  0  0  0  0  0  # atno 4763 bound_to 924 
  -12.0951   15.3962   56.7393 LP  0  0  0  0  0  0  0  0  0  0  0  0  # atno 4764 bound_to 924 
  -20.2216   12.9795   62.8654 LP  0  0  0  0  0  0  0  0  0  0  0  0  # atno 4771 bound_to 1244
  -21.0540   12.5802   64.2124 LP  0  0  0  0  0  0  0  0  0  0  0  0  # atno 4772 bound_to 1244
   -7.3248   22.3279   71.8243 LP  0  0  0  0  0  0  0  0  0  0  0  0  # atno 4775 bound_to 178 
   -7.2368   23.8162   72.4905 LP  0  0  0  0  0  0  0  0  0  0  0  0  # atno 4776 bound_to 178 
   -2.6659   23.3808   71.7567 LP  0  0  0  0  0  0  0  0  0  0  0  0  # atno 4779 bound_to 171 
   -3.4382   24.7059   72.3173 LP  0  0  0  0  0  0  0  0  0  0  0  0  # atno 4780 bound_to 171 
   -8.5300   25.1781   63.5916 LP  0  0  0  0  0  0  0  0  0  0  0  0  # atno 4783 bound_to 185 
   -7.1590   25.9011   63.0775 LP  0  0  0  0  0  0  0  0  0  0  0  0  # atno 4784 bound_to 185 
   -2.8291   18.5031   73.1730 LP  0  0  0  0  0  0  0  0  0  0  0  0  # atno 4785 bound_to 346 
   -3.4762   17.1095   72.6201 LP  0  0  0  0  0  0  0  0  0  0  0  0  # atno 4786 bound_to 346 
   -3.1297   20.4670   75.2211 LP  0  0  0  0  0  0  0  0  0  0  0  0  # atno 4787 bound_to 339 
   -2.7197   22.0275   75.4730 LP  0  0  0  0  0  0  0  0  0  0  0  0  # atno 4788 bound_to 339 
   -7.9787   29.9362   64.9651 LP  0  0  0  0  0  0  0  0  0  0  0  0  # atno 4797 bound_to 154 
   -8.2362   28.3980   65.4492 LP  0  0  0  0  0  0  0  0  0  0  0  0  # atno 4798 bound_to 154 

> <Gold.Score>
     Score     S(PLP)   S(hbond)     S(cho)   S(metal)  DE(clash)   DE(tors)     intcor
     44.53     -42.82       0.65       0.00       0.00       0.00       1.20       2.17

> <Gold.PLP.Fitness>
44.5332

> <Gold.PLP.PLP>
-42.8158

> <Gold.PLP.part.hbond>
-3.0000

> <Gold.PLP.part.metal>
0.0000

> <Gold.PLP.part.buried>
-2.0776

> <Gold.PLP.part.nonpolar>
-38.0345

> <Gold.PLP.part.repulsive>
0.1357

> <Gold.PLP.ligand.clash>
0.0000

> <Gold.PLP.ligand.torsion>
1.2001

> <Gold.PLP.Chemscore.Hbond>
0.6500

> <Gold.PLP.Chemscore.CHOScore>
0.0000

> <Gold.PLP.Chemscore.Metal>
0.0000

> <Gold.Chemscore.Hbonds>
donor molecule, donor type, donor heavy atom, donor atom, acceptor molecule, acceptor atom, score
      P1  H  1105  4261       L1     4  0.65

> <Gold.PLP.Chemscore.Internal.Correction>
2.1676

