unknown|prepared_Mpro-x0305|sdf|1|dock2
  -GOLD-   5 72214353D 1   1.00000     0.00000

 20 20  0  0  0  0  0  0  0  0  1 V2000
  -12.3037   15.9054   74.8299 C   0  0  0  0  0  0  0  0  0  0  0  0
  -13.0669   16.1717   73.5671 C   0  0  0  0  0  0  0  0  0  0  0  0
  -12.1653   16.2012   72.4569 N   0  0  0  0  0  0  0  0  0  0  0  0
  -12.1280   15.1222   71.5138 C   0  0  0  0  0  0  0  0  0  0  0  0
  -12.5186   13.8435   71.8540 C   0  0  0  0  0  0  0  0  0  0  0  0
  -12.4934   12.7839   70.9662 C   0  0  0  0  0  0  0  0  0  0  0  0
  -12.0582   13.0018   69.6720 C   0  0  0  0  0  0  0  0  0  0  0  0
  -12.0043   11.9485   68.6923 C   0  0  0  0  0  0  0  0  0  0  0  0
  -11.9783   11.1021   67.8978 N   0  0  0  0  0  0  0  0  0  0  0  0
  -11.6742   14.2911   69.3620 C   0  0  0  0  0  0  0  0  0  0  0  0
  -11.7097   15.3037   70.2487 N   0  0  0  0  0  0  0  0  0  0  0  0
  -12.9445   15.7922   75.7171 H   0  0  0  0  0  0  0  0  0  0  0  0
  -11.6194   16.7835   74.9820 H   0  0  0  0  0  0  0  0  0  0  0  0
  -11.6487   15.0316   74.6538 H   0  0  0  0  0  0  0  0  0  0  0  0
  -13.5862   17.1636   73.7217 H   0  0  0  0  0  0  0  0  0  0  0  0
  -13.9123   15.4518   73.4234 H   0  0  0  0  0  0  0  0  0  0  0  0
  -11.5314   17.0172   72.3371 H   0  0  0  0  0  0  0  0  0  0  0  0
  -12.8613   13.6897   72.8867 H   0  0  0  0  0  0  0  0  0  0  0  0
  -12.8003   11.7905   71.2422 H   0  0  0  0  0  0  0  0  0  0  0  0
  -11.3283   14.4618   68.3312 H   0  0  0  0  0  0  0  0  0  0  0  0
  1  2  1  0  0  0  0
  2  3  1  0  0  0  0
  3  4  1  0  0  0  0
  4  5  2  0  0  0  0
  5  6  1  0  0  0  0
  6  7  2  0  0  0  0
  7  8  1  0  0  0  0
  8  9  3  0  0  0  0
  7 10  1  0  0  0  0
 10 11  2  0  0  0  0
  4 11  1  0  0  0  0
  1 12  1  0  0  0  0
  1 13  1  0  0  0  0
  1 14  1  0  0  0  0
  2 15  1  0  0  0  0
  2 16  1  0  0  0  0
  3 17  1  0  0  0  0
  5 18  1  0  0  0  0
  6 19  1  0  0  0  0
 10 20  1  0  0  0  0
M  END
> <Gold.Version>
2022.1.0

> <Gold.Id.Protein>
6LU7|6LU7_protein|mol2

> <Gold.PLP.Fitness>
34.9020

> <Gold.PLP.PLP>
-32.3272

> <Gold.PLP.part.hbond>
-1.0000

> <Gold.PLP.part.metal>
0.0000

> <Gold.PLP.part.buried>
-5.1731

> <Gold.PLP.part.nonpolar>
-27.1598

> <Gold.PLP.part.repulsive>
0.2957

> <Gold.PLP.ligand.clash>
0.0000

> <Gold.PLP.ligand.torsion>
0.2131

> <Gold.PLP.Chemscore.Hbond>
1.0000

> <Gold.PLP.Chemscore.CHOScore>
0.0000

> <Gold.PLP.Chemscore.Metal>
0.0000

> <Gold.Chemscore.Hbonds>
donor molecule, donor type, donor heavy atom, donor atom, acceptor molecule, acceptor atom, score
      P1  H  1281  4132       L1     9  1.00

> <Gold.PLP.Chemscore.Internal.Correction>
0.0011

> <Gold.Protein.RotatedTorsions>
[ 3973 1471 1470 1467 ] final -118.21 input   60.00 | X-H torsion
[ 3372  414  413  411 ] final   34.49 input   60.00 | X-H torsion
[ 4268 1114 1113 1110 ] final  -89.38 input   59.99 | X-H torsion
[ 4409  924  923  921 ] final  -47.86 input   59.99 | X-H torsion
[ 4183 1244 1243 1241 ] final  169.03 input   59.99 | X-H torsion
[ 3800  178  177  174 ] final -139.65 input   60.00 | X-H torsion
[ 3793  171  170  167 ] final  100.90 input   60.00 | X-H torsion
[ 3576  185  184  181 ] final -131.90 input   60.00 | X-H torsion
[ 3523  346  345  342 ] final   60.18 input   60.01 | X-H torsion
[ 3515  339  338  335 ] final -110.90 input   60.00 | X-H torsion
[ 3663  154  153  150 ] final  139.51 input   60.00 | X-H torsion
[ 4280 1130 1129 1126 ] final -116.28 input   60.00 | X-H torsion

> <Gold.Protein.ActiveResidues>
 VAL20   THR21   CYS22   GLY23   THR24   THR25   THR26   LEU27   ASN28   PRO39  
 ARG40   HIS41   VAL42   CYS44   THR45   SER46   ASP48   MET49   LEU50   PRO52  
 TYR54   TYR118  ASN119  ILE136  GLY138  SER139  PHE140  LEU141  ASN142  GLY143 
 SER144  CYS145  GLY146  SER147  TYR161  HIS163  HIS164  MET165  GLU166  LEU167 
 PRO168  THR169  GLY170  VAL171  HIS172  ALA173  PHE181  PHE185  VAL186  ASP187 
 ARG188  GLN189  THR190  ALA191  GLN192  ALA193 

> <Gold.Protein.RotatedAtoms>
  -13.9303   18.1760   75.5918 H   0  0  0  0  0  0  0  0  0  0  0  0  # atno 3372 bound_to 414 
   -2.7892   20.8717   75.6571 H   0  0  0  0  0  0  0  0  0  0  0  0  # atno 3515 bound_to 339 
   -2.8639   18.4925   73.1689 H   0  0  0  0  0  0  0  0  0  0  0  0  # atno 3523 bound_to 346 
   -7.3679   25.4304   63.0496 H   0  0  0  0  0  0  0  0  0  0  0  0  # atno 3576 bound_to 185 
   -7.3677   29.9546   64.9754 H   0  0  0  0  0  0  0  0  0  0  0  0  # atno 3663 bound_to 154 
   -2.7795   23.4107   71.7374 H   0  0  0  0  0  0  0  0  0  0  0  0  # atno 3793 bound_to 171 
   -7.5231   22.4800   72.0201 H   0  0  0  0  0  0  0  0  0  0  0  0  # atno 3800 bound_to 178 
  -15.2684    9.0221   78.1349 H   0  0  0  0  0  0  0  0  0  0  0  0  # atno 3973 bound_to 1471
  -19.9591   13.4258   63.0168 H   0  0  0  0  0  0  0  0  0  0  0  0  # atno 4183 bound_to 1244
  -12.3982   15.5649   61.5436 H   0  0  0  0  0  0  0  0  0  0  0  0  # atno 4268 bound_to 1114
  -16.3318   19.2818   57.9659 H   0  0  0  0  0  0  0  0  0  0  0  0  # atno 4280 bound_to 1130
  -12.1625   15.4228   56.9574 H   0  0  0  0  0  0  0  0  0  0  0  0  # atno 4409 bound_to 924 
  -15.7051    7.4547   78.1152 LP  0  0  0  0  0  0  0  0  0  0  0  0  # atno 4696 bound_to 1471
  -15.0613    8.1427   76.7815 LP  0  0  0  0  0  0  0  0  0  0  0  0  # atno 4697 bound_to 1471
  -15.4207   17.7777   75.0738 LP  0  0  0  0  0  0  0  0  0  0  0  0  # atno 4731 bound_to 414 
  -14.7505   16.9812   76.3321 LP  0  0  0  0  0  0  0  0  0  0  0  0  # atno 4732 bound_to 414 
  -13.8368   15.3354   60.8186 LP  0  0  0  0  0  0  0  0  0  0  0  0  # atno 4733 bound_to 1114
  -13.6859   16.4453   62.0068 LP  0  0  0  0  0  0  0  0  0  0  0  0  # atno 4734 bound_to 1114
  -11.0193   15.0970   58.0686 LP  0  0  0  0  0  0  0  0  0  0  0  0  # atno 4763 bound_to 924 
  -10.6766   14.9651   56.4774 LP  0  0  0  0  0  0  0  0  0  0  0  0  # atno 4764 bound_to 924 
  -20.9973   12.3830   63.7116 LP  0  0  0  0  0  0  0  0  0  0  0  0  # atno 4771 bound_to 1244
  -20.4137   13.6481   64.5633 LP  0  0  0  0  0  0  0  0  0  0  0  0  # atno 4772 bound_to 1244
   -6.9714   23.9643   72.3951 LP  0  0  0  0  0  0  0  0  0  0  0  0  # atno 4775 bound_to 178 
   -6.1165   23.0023   71.3899 LP  0  0  0  0  0  0  0  0  0  0  0  0  # atno 4776 bound_to 178 
   -3.3730   24.7816   72.3825 LP  0  0  0  0  0  0  0  0  0  0  0  0  # atno 4779 bound_to 171 
   -1.8081   24.3770   72.6152 LP  0  0  0  0  0  0  0  0  0  0  0  0  # atno 4780 bound_to 171 
   -7.8035   26.8525   63.7097 LP  0  0  0  0  0  0  0  0  0  0  0  0  # atno 4783 bound_to 185 
   -8.7843   25.5535   63.8411 LP  0  0  0  0  0  0  0  0  0  0  0  0  # atno 4784 bound_to 185 
   -3.4542   17.0821   72.6120 LP  0  0  0  0  0  0  0  0  0  0  0  0  # atno 4785 bound_to 346 
   -1.8448   17.2761   72.8088 LP  0  0  0  0  0  0  0  0  0  0  0  0  # atno 4786 bound_to 346 
   -3.0267   22.3046   74.9234 LP  0  0  0  0  0  0  0  0  0  0  0  0  # atno 4787 bound_to 339 
   -3.6549   20.9410   74.2810 LP  0  0  0  0  0  0  0  0  0  0  0  0  # atno 4788 bound_to 339 
   -8.5606   28.8918   65.2846 LP  0  0  0  0  0  0  0  0  0  0  0  0  # atno 4797 bound_to 154 
   -6.9997   28.4460   65.4618 LP  0  0  0  0  0  0  0  0  0  0  0  0  # atno 4798 bound_to 154 

$$$$
