#       Name:                unknown
#       Creating user name   williammccorkindale
#       Creation time:       Tue Jun  7 14:55:41 2022


#       File generated by GOLD software.
#

@<TRIPOS>MOLECULE
unknown|prepared_Mpro-x0395|mol2|1|dock3
    29    30     1
SMALL
NO_CHARGES


@<TRIPOS>ATOM
      1 C1         -12.2545  13.3541  64.9005 C.3            1 RES1               0.0000
      2 C2         -11.9602  13.6657  66.3457 C.2            1 RES1               0.0000
      3 N3         -12.0279  12.8557  67.3971 N.2            1 RES1               0.0000
      4 N4         -11.7445  13.2848  68.5471 N.2            1 RES1               0.0000
      5 C5         -11.3757  14.5498  68.7191 C.2            1 RES1               0.0000
      6 C6         -10.9959  15.2900  69.9498 C.3            1 RES1               0.0000
      7 N7         -12.0612  15.4370  70.8782 N.3            1 RES1               0.0000
      8 C8         -11.6730  16.3742  71.9120 C.3            1 RES1               0.0000
      9 C9         -11.9979  15.8596  73.3090 C.3            1 RES1               0.0000
     10 C10        -13.4315  15.4519  73.2717 C.2            1 RES1               0.0000
     11 C11        -13.7609  14.6023  72.2895 C.2            1 RES1               0.0000
     12 F12        -14.9984  14.1291  72.1012 F              1 RES1               0.0000
     13 C13        -12.5966  14.2210  71.4017 C.3            1 RES1               0.0000
     14 S14        -11.4565  15.1189  67.0949 S.3            1 RES1               0.0000
     15 H15        -11.4130  12.8394  64.4369 H              1 RES1               0.0000
     16 H16        -12.4038  14.3298  64.4011 H              1 RES1               0.0000
     17 H17        -13.2021  12.7727  64.9085 H              1 RES1               0.0000
     18 H18        -10.6166  16.2958  69.6892 H              1 RES1               0.0000
     19 H19        -10.1406  14.7508  70.4156 H              1 RES1               0.0000
     20 H20        -10.5918  16.5854  71.8294 H              1 RES1               0.0000
     21 H21        -12.2975  17.2808  71.7748 H              1 RES1               0.0000
     22 H22        -11.3610  14.9949  73.5850 H              1 RES1               0.0000
     23 H23        -11.8073  16.6909  74.0081 H              1 RES1               0.0000
     24 H24        -14.1813  15.7875  73.9589 H              1 RES1               0.0000
     25 H25        -11.9148  13.6460  72.0371 H              1 RES1               0.0000
     26 H26        -12.9870  13.5691  70.6149 H              1 RES1               0.0000
     27 ****       -12.3048  11.9026  67.2750 LP             1 RES1               0.0000
     28 ****       -11.7973  12.6704  69.3344 LP             1 RES1               0.0000
     29 ****       -12.8350  15.8076  70.3644 LP             1 RES1               0.0000
@<TRIPOS>BOND
    1    1    2 1     
    2    2    3 2     
    3    3    4 1     
    4    4    5 2     
    5    5    6 1     
    6    6    7 1     
    7    7    8 1     
    8    8    9 1     
    9    9   10 1     
   10   10   11 2     
   11   11   12 1     
   12   11   13 1     
   13    5   14 1     
   14   14    2 1     
   15   13    7 1     
   16    1   15 1     
   17    1   16 1     
   18    1   17 1     
   19    6   18 1     
   20    6   19 1     
   21    8   20 1     
   22    8   21 1     
   23    9   22 1     
   24    9   23 1     
   25   10   24 1     
   26   13   25 1     
   27   13   26 1     
   28    3   27 1     
   29    4   28 1     
   30    7   29 1     
@<TRIPOS>SUBSTRUCTURE
      1 RES1           1
@<TRIPOS>SET
LONE_PAIRS      STATIC     ATOMS    <user>   **** ""
3 27 28 29
ATOM$BLUE        STATIC     ATOMS    COLORGROUP SYSTEM
3 27 28 29
@<TRIPOS>COMMENT
> <Gold.Version>
2022.1.0

> <Gold.Id.Protein>
6LU7|6LU7_protein|mol2

> <Gold.Protein.RotatedTorsions>
[ 3973 1471 1470 1467 ] final  149.25 input   60.00 | X-H torsion
[ 3372  414  413  411 ] final -118.47 input   60.00 | X-H torsion
[ 4268 1114 1113 1110 ] final   48.96 input   59.99 | X-H torsion
[ 4409  924  923  921 ] final  -37.27 input   59.99 | X-H torsion
[ 4183 1244 1243 1241 ] final  -26.12 input   59.99 | X-H torsion
[ 3800  178  177  174 ] final   36.46 input   60.00 | X-H torsion
[ 3793  171  170  167 ] final  177.07 input   60.00 | X-H torsion
[ 3576  185  184  181 ] final  102.43 input   60.00 | X-H torsion
[ 3523  346  345  342 ] final -129.83 input   60.01 | X-H torsion
[ 3515  339  338  335 ] final  -45.55 input   60.00 | X-H torsion
[ 3663  154  153  150 ] final  -47.93 input   60.00 | X-H torsion
[ 4280 1130 1129 1126 ] final  -93.57 input   60.00 | X-H torsion

> <Gold.Protein.ActiveResidues>
 VAL20   THR21   CYS22   GLY23   THR24   THR25   THR26   LEU27   ASN28   PRO39  
 ARG40   HIS41   VAL42   CYS44   THR45   SER46   ASP48   MET49   LEU50   PRO52  
 TYR54   TYR118  ASN119  ILE136  GLY138  SER139  PHE140  LEU141  ASN142  GLY143 
 SER144  CYS145  GLY146  SER147  TYR161  HIS163  HIS164  MET165  GLU166  LEU167 
 PRO168  THR169  GLY170  VAL171  HIS172  ALA173  PHE181  PHE185  VAL186  ASP187 
 ARG188  GLN189  THR190  ALA191  GLN192  ALA193 

> <Gold.Protein.RotatedAtoms>
  -15.5589   17.3839   75.4055 H   0  0  0  0  0  0  0  0  0  0  0  0  # atno 3372 bound_to 414 
   -3.3311   20.4525   74.9140 H   0  0  0  0  0  0  0  0  0  0  0  0  # atno 3515 bound_to 339 
   -2.4206   16.7770   72.5862 H   0  0  0  0  0  0  0  0  0  0  0  0  # atno 3523 bound_to 346 
   -7.8849   26.8482   63.7547 H   0  0  0  0  0  0  0  0  0  0  0  0  # atno 3576 bound_to 185 
   -7.7982   28.2194   65.5183 H   0  0  0  0  0  0  0  0  0  0  0  0  # atno 3663 bound_to 154 
   -1.8125   23.7774   72.2513 H   0  0  0  0  0  0  0  0  0  0  0  0  # atno 3793 bound_to 171 
   -6.1904   23.7768   71.8091 H   0  0  0  0  0  0  0  0  0  0  0  0  # atno 3800 bound_to 178 
  -15.7154    7.7779   78.4224 H   0  0  0  0  0  0  0  0  0  0  0  0  # atno 3973 bound_to 1471
  -20.8497   13.0809   64.6082 H   0  0  0  0  0  0  0  0  0  0  0  0  # atno 4183 bound_to 1244
  -13.9239   16.3680   61.8425 H   0  0  0  0  0  0  0  0  0  0  0  0  # atno 4268 bound_to 1114
  -16.4144   19.6403   57.9894 H   0  0  0  0  0  0  0  0  0  0  0  0  # atno 4280 bound_to 1130
  -12.1116   15.4045   56.7934 H   0  0  0  0  0  0  0  0  0  0  0  0  # atno 4409 bound_to 924 
  -15.2091    7.7312   76.8766 LP  0  0  0  0  0  0  0  0  0  0  0  0  # atno 4696 bound_to 1471
  -15.1071    9.1193   77.7306 LP  0  0  0  0  0  0  0  0  0  0  0  0  # atno 4697 bound_to 1471
  -14.2719   17.2140   76.3868 LP  0  0  0  0  0  0  0  0  0  0  0  0  # atno 4731 bound_to 414 
  -14.2591   18.3426   75.2066 LP  0  0  0  0  0  0  0  0  0  0  0  0  # atno 4732 bound_to 414 
  -12.4112   15.7744   61.7571 LP  0  0  0  0  0  0  0  0  0  0  0  0  # atno 4733 bound_to 1114
  -13.5749   15.1975   60.7673 LP  0  0  0  0  0  0  0  0  0  0  0  0  # atno 4734 bound_to 1114
  -11.1822   15.1467   58.1040 LP  0  0  0  0  0  0  0  0  0  0  0  0  # atno 4763 bound_to 924 
  -10.5650   14.9339   56.6072 LP  0  0  0  0  0  0  0  0  0  0  0  0  # atno 4764 bound_to 924 
  -19.8620   13.8618   63.5774 LP  0  0  0  0  0  0  0  0  0  0  0  0  # atno 4771 bound_to 1244
  -20.6521   12.5167   63.0947 LP  0  0  0  0  0  0  0  0  0  0  0  0  # atno 4772 bound_to 1244
   -6.8270   22.3109   71.5024 LP  0  0  0  0  0  0  0  0  0  0  0  0  # atno 4775 bound_to 178 
   -7.6030   23.3497   72.4950 LP  0  0  0  0  0  0  0  0  0  0  0  0  # atno 4776 bound_to 178 
   -3.3713   23.7841   71.7844 LP  0  0  0  0  0  0  0  0  0  0  0  0  # atno 4779 bound_to 171 
   -2.7838   25.0051   72.6957 LP  0  0  0  0  0  0  0  0  0  0  0  0  # atno 4780 bound_to 171 
   -8.7554   25.4741   63.8016 LP  0  0  0  0  0  0  0  0  0  0  0  0  # atno 4783 bound_to 185 
   -7.3117   25.5039   63.0390 LP  0  0  0  0  0  0  0  0  0  0  0  0  # atno 4784 bound_to 185 
   -2.1018   18.2710   73.1468 LP  0  0  0  0  0  0  0  0  0  0  0  0  # atno 4785 bound_to 346 
   -3.6435   17.8148   72.8609 LP  0  0  0  0  0  0  0  0  0  0  0  0  # atno 4786 bound_to 346 
   -2.6451   21.7222   75.6659 LP  0  0  0  0  0  0  0  0  0  0  0  0  # atno 4787 bound_to 339 
   -3.4908   21.9456   74.2869 LP  0  0  0  0  0  0  0  0  0  0  0  0  # atno 4788 bound_to 339 
   -6.7585   29.4182   65.1577 LP  0  0  0  0  0  0  0  0  0  0  0  0  # atno 4797 bound_to 154 
   -8.3683   29.6672   65.0420 LP  0  0  0  0  0  0  0  0  0  0  0  0  # atno 4798 bound_to 154 

> <Gold.Score>
     Score     S(PLP)   S(hbond)     S(cho)   S(metal)  DE(clash)   DE(tors)     intcor
     40.20     -40.30       0.00       0.00       0.00       0.00       0.06       0.02

> <Gold.PLP.Fitness>
40.1962

> <Gold.PLP.PLP>
-40.2968

> <Gold.PLP.part.hbond>
0.0000

> <Gold.PLP.part.metal>
0.0000

> <Gold.PLP.part.buried>
-6.8002

> <Gold.PLP.part.nonpolar>
-33.8151

> <Gold.PLP.part.repulsive>
0.2991

> <Gold.PLP.ligand.clash>
0.0000

> <Gold.PLP.ligand.torsion>
0.0604

> <Gold.PLP.Chemscore.Hbond>
0.0000

> <Gold.PLP.Chemscore.CHOScore>
0.0000

> <Gold.PLP.Chemscore.Metal>
0.0000

> <Gold.PLP.Chemscore.Internal.Correction>
0.0201

