#       Name:                /Users/williammccorkindale/ml_physics/smi2wyck/notebooks/docking/mpro_fragments/prepared_Mpro-x1093.mol2
#       Creating user name   williammccorkindale
#       Creation time:       Tue Jun  7 14:55:40 2022


#       File generated by GOLD software.
#

@<TRIPOS>MOLECULE
/Users/williammccorkindale/ml_physics/smi2wyck/notebooks/docking/mpro_fragments/prepared_Mpro-x1093.mol2
    41    43     1
SMALL
NO_CHARGES


@<TRIPOS>ATOM
      1 C1           5.2482   0.8218  -0.4955 C.3            1 RES1               0.0000
      2 N2           3.8530   0.5316  -0.4630 N.3            1 RES1               0.0000
      3 C3           3.4767  -0.6246   0.2872 C.3            1 RES1               0.0000
      4 C4           2.0064  -0.8836   0.0328 C.3            1 RES1               0.0000
      5 N5           1.2365   0.2574   0.4692 N.am           1 RES1               0.0000
      6 C6           1.9113   1.5128   0.7036 C.3            1 RES1               0.0000
      7 C7           3.0007   1.6667  -0.3290 C.3            1 RES1               0.0000
      8 C8          -0.1587   0.1019   0.6525 C.2            1 RES1               0.0000
      9 O9          -0.8233   1.0953   1.0294 O.2            1 RES1               0.0000
     10 C10         -0.8292  -1.1772   0.4131 C.3            1 RES1               0.0000
     11 C11         -2.2856  -1.1186   0.6602 C.2            1 RES1               0.0000
     12 C12         -2.9380  -1.6225   1.7621 C.2            1 RES1               0.0000
     13 N13         -4.2390  -1.3649   1.5943 N.pl3          1 RES1               0.0000
     14 C14         -4.4359  -0.7220   0.4383 C.ar           1 RES1               0.0000
     15 N15         -5.5244  -0.2357  -0.2091 N.ar           1 RES1               0.0000
     16 C16         -5.4864   0.3879  -1.3864 C.ar           1 RES1               0.0000
     17 C17         -4.2681   0.5630  -2.0092 C.ar           1 RES1               0.0000
     18 C18         -3.1086   0.0976  -1.4179 C.ar           1 RES1               0.0000
     19 C19         -3.2117  -0.5402  -0.1981 C.ar           1 RES1               0.0000
     20 H20          5.8508  -0.0736  -0.7395 H              1 RES1               0.0000
     21 H21          5.3865   1.6288  -1.2721 H              1 RES1               0.0000
     22 H22          5.6026   1.2723   0.4547 H              1 RES1               0.0000
     23 H23          4.0781  -1.4816  -0.1300 H              1 RES1               0.0000
     24 H24          3.6860  -0.5395   1.3828 H              1 RES1               0.0000
     25 H25          1.6680  -1.8330   0.4935 H              1 RES1               0.0000
     26 H26          1.8986  -0.9151  -1.0877 H              1 RES1               0.0000
     27 H27          1.2056   2.3783   0.5338 H              1 RES1               0.0000
     28 H28          2.3343   1.5889   1.7189 H              1 RES1               0.0000
     29 H29          2.4657   1.7913  -1.3182 H              1 RES1               0.0000
     30 H30          3.5517   2.6235  -0.1871 H              1 RES1               0.0000
     31 H31         -0.3586  -1.9441   1.0717 H              1 RES1               0.0000
     32 H32         -0.6655  -1.5036  -0.6403 H              1 RES1               0.0000
     33 H33         -2.4698  -2.1389   2.6159 H              1 RES1               0.0000
     34 H34         -4.9815  -1.6279   2.2650 H              1 RES1               0.0000
     35 H35         -6.3609   0.7707  -1.8958 H              1 RES1               0.0000
     36 H36         -4.1900   1.0627  -2.9632 H              1 RES1               0.0000
     37 H37         -2.1255   0.1939  -1.8362 H              1 RES1               0.0000
     38 ****         3.6683   0.2326  -1.3992 LP             1 RES1               0.0000
     39 ****        -0.3665   1.9697   1.1928 LP             1 RES1               0.0000
     40 ****        -1.8104   1.0136   1.1667 LP             1 RES1               0.0000
     41 ****        -6.4166  -0.3532   0.2270 LP             1 RES1               0.0000
@<TRIPOS>BOND
    1    1    2 1     
    2    2    3 1     
    3    3    4 1     
    4    4    5 1     
    5    5    6 1     
    6    6    7 1     
    7    5    8 am    
    8    8    9 2     
    9    8   10 1     
   10   10   11 1     
   11   11   12 2     
   12   12   13 1     
   13   13   14 1     
   14   14   15 ar    
   15   15   16 ar    
   16   16   17 ar    
   17   17   18 ar    
   18   18   19 ar    
   19    7    2 1     
   20   19   11 1     
   21   19   14 ar    
   22    1   20 1     
   23    1   21 1     
   24    1   22 1     
   25    3   23 1     
   26    3   24 1     
   27    4   25 1     
   28    4   26 1     
   29    6   27 1     
   30    6   28 1     
   31    7   29 1     
   32    7   30 1     
   33   10   31 1     
   34   10   32 1     
   35   12   33 1     
   36   13   34 1     
   37   16   35 1     
   38   17   36 1     
   39   18   37 1     
   40    2   38 1     
   41    9   39 1     
   42    9   40 1     
   43   15   41 1     
@<TRIPOS>SUBSTRUCTURE
      1 RES1           1
@<TRIPOS>SET
LONE_PAIRS      STATIC     ATOMS    <user>   **** ""
4 38 39 40 41
DONOR_HYDROGENS      STATIC     ATOMS    <user>   **** ""
1 34
ATOM$BLUE        STATIC     ATOMS    COLORGROUP SYSTEM
4 38 39 40 41
ATOM$RED        STATIC     ATOMS    COLORGROUP SYSTEM
1 34
