#       Name:                unknown
#       Creating user name   williammccorkindale
#       Creation time:       Tue Jun  7 14:55:42 2022


#       File generated by GOLD software.
#

@<TRIPOS>MOLECULE
unknown|prepared_Mpro-x0387|mol2|1|dock2
    31    32     1
SMALL
NO_CHARGES


@<TRIPOS>ATOM
      1 O1          -9.7595  14.2862  66.0267 O.3            1 RES1               0.0000
      2 C2         -10.7225  15.2170  66.4105 C.3            1 RES1               0.0000
      3 C3         -10.0196  16.3433  67.1118 C.3            1 RES1               0.0000
      4 C4         -10.8142  16.9726  68.2100 C.3            1 RES1               0.0000
      5 N5         -11.5046  16.0944  69.0908 N.3            1 RES1               0.0000
      6 C6         -11.0995  16.2089  70.4568 C.3            1 RES1               0.0000
      7 C7         -12.1543  15.7836  71.4500 C.2            1 RES1               0.0000
      8 C8         -12.1527  16.0728  72.7508 C.2            1 RES1               0.0000
      9 C9         -13.1711  15.6144  73.5211 C.2            1 RES1               0.0000
     10 S10        -14.1467  14.7606  72.3868 S.3            1 RES1               0.0000
     11 C11        -13.2113  15.0278  70.9845 C.2            1 RES1               0.0000
     12 C12        -11.2222  14.7225  68.7124 C.3            1 RES1               0.0000
     13 C13        -11.7269  14.5259  67.3019 C.3            1 RES1               0.0000
     14 H14         -9.1420  14.6643  65.3227 H              1 RES1               0.0000
     15 H15        -11.2461  15.5388  65.4888 H              1 RES1               0.0000
     16 H16         -9.0402  16.0143  67.5140 H              1 RES1               0.0000
     17 H17         -9.8013  17.1188  66.3487 H              1 RES1               0.0000
     18 H18        -11.5691  17.6766  67.7477 H              1 RES1               0.0000
     19 H19        -10.1550  17.6261  68.8180 H              1 RES1               0.0000
     20 H20        -10.1901  15.6409  70.6544 H              1 RES1               0.0000
     21 H21        -10.8322  17.2934  70.6229 H              1 RES1               0.0000
     22 H22        -11.3573  16.6762  73.2356 H              1 RES1               0.0000
     23 H23        -13.3460  15.7440  74.5943 H              1 RES1               0.0000
     24 H24        -13.4253  14.6703  69.9667 H              1 RES1               0.0000
     25 H25        -10.1300  14.5244  68.6925 H              1 RES1               0.0000
     26 H26        -11.7349  13.9821  69.3457 H              1 RES1               0.0000
     27 H27        -12.7018  15.0423  67.2310 H              1 RES1               0.0000
     28 H28        -11.8238  13.4586  67.0214 H              1 RES1               0.0000
     29 ****       -10.2175  13.4775  65.6576 LP             1 RES1               0.0000
     30 ****        -9.2199  14.0271  66.8278 LP             1 RES1               0.0000
     31 ****       -12.4702  16.3431  69.0150 LP             1 RES1               0.0000
@<TRIPOS>BOND
    1    1    2 1     
    2    2    3 1     
    3    3    4 1     
    4    4    5 1     
    5    5    6 1     
    6    6    7 1     
    7    7    8 1     
    8    8    9 2     
    9    9   10 1     
   10   10   11 1     
   11    5   12 1     
   12   12   13 1     
   13   13    2 1     
   14    7   11 2     
   15    1   14 1     
   16    2   15 1     
   17    3   16 1     
   18    3   17 1     
   19    4   18 1     
   20    4   19 1     
   21    6   20 1     
   22    6   21 1     
   23    8   22 1     
   24    9   23 1     
   25   11   24 1     
   26   12   25 1     
   27   12   26 1     
   28   13   27 1     
   29   13   28 1     
   30    1   29 1     
   31    1   30 1     
   32    5   31 1     
@<TRIPOS>SUBSTRUCTURE
      1 RES1           1
@<TRIPOS>SET
LONE_PAIRS      STATIC     ATOMS    <user>   **** ""
3 29 30 31
DONOR_HYDROGENS      STATIC     ATOMS    <user>   **** ""
1 14
ATOM$BLUE        STATIC     ATOMS    COLORGROUP SYSTEM
3 29 30 31
ATOM$RED        STATIC     ATOMS    COLORGROUP SYSTEM
1 14
@<TRIPOS>COMMENT
> <Gold.Version>
2022.1.0

> <Gold.Id.Protein>
6LU7|6LU7_protein|mol2

> <Gold.Protein.RotatedTorsions>
[ 3973 1471 1470 1467 ] final -124.73 input   60.00 | X-H torsion
[ 3372  414  413  411 ] final  150.50 input   60.00 | X-H torsion
[ 4268 1114 1113 1110 ] final  -21.68 input   59.99 | X-H torsion
[ 4409  924  923  921 ] final   86.19 input   59.99 | X-H torsion
[ 4183 1244 1243 1241 ] final -133.47 input   59.99 | X-H torsion
[ 3800  178  177  174 ] final -110.48 input   60.00 | X-H torsion
[ 3793  171  170  167 ] final  -91.38 input   60.00 | X-H torsion
[ 3576  185  184  181 ] final -101.21 input   60.00 | X-H torsion
[ 3523  346  345  342 ] final    6.46 input   60.01 | X-H torsion
[ 3515  339  338  335 ] final  -73.43 input   60.00 | X-H torsion
[ 3663  154  153  150 ] final -123.39 input   60.00 | X-H torsion
[ 4280 1130 1129 1126 ] final  -39.17 input   60.00 | X-H torsion

> <Gold.Protein.ActiveResidues>
 VAL20   THR21   CYS22   GLY23   THR24   THR25   THR26   LEU27   ASN28   PRO39  
 ARG40   HIS41   VAL42   CYS44   THR45   SER46   ASP48   MET49   LEU50   PRO52  
 TYR54   TYR118  ASN119  ILE136  GLY138  SER139  PHE140  LEU141  ASN142  GLY143 
 SER144  CYS145  GLY146  SER147  TYR161  HIS163  HIS164  MET165  GLU166  LEU167 
 PRO168  THR169  GLY170  VAL171  HIS172  ALA173  PHE181  PHE185  VAL186  ASP187 
 ARG188  GLN189  THR190  ALA191  GLN192  ALA193 

> <Gold.Protein.RotatedAtoms>
  -14.6911   17.0051   76.3479 H   0  0  0  0  0  0  0  0  0  0  0  0  # atno 3372 bound_to 414 
   -3.0842   20.4993   75.2886 H   0  0  0  0  0  0  0  0  0  0  0  0  # atno 3515 bound_to 339 
   -3.5496   18.0460   72.9541 H   0  0  0  0  0  0  0  0  0  0  0  0  # atno 3523 bound_to 346 
   -7.7411   25.1222   63.1558 H   0  0  0  0  0  0  0  0  0  0  0  0  # atno 3576 bound_to 185 
   -6.7880   28.7406   65.3751 H   0  0  0  0  0  0  0  0  0  0  0  0  # atno 3663 bound_to 154 
   -2.3395   24.8994   72.7646 H   0  0  0  0  0  0  0  0  0  0  0  0  # atno 3793 bound_to 171 
   -7.2018   22.2959   71.7283 H   0  0  0  0  0  0  0  0  0  0  0  0  # atno 3800 bound_to 178 
  -15.3108    8.9720   78.2189 H   0  0  0  0  0  0  0  0  0  0  0  0  # atno 3973 bound_to 1471
  -19.9072   13.9116   63.7733 H   0  0  0  0  0  0  0  0  0  0  0  0  # atno 4183 bound_to 1244
  -12.8804   16.2885   62.1192 H   0  0  0  0  0  0  0  0  0  0  0  0  # atno 4268 bound_to 1114
  -16.3338   20.3129   58.5123 H   0  0  0  0  0  0  0  0  0  0  0  0  # atno 4280 bound_to 1130
  -10.5384   14.9291   56.6576 H   0  0  0  0  0  0  0  0  0  0  0  0  # atno 4409 bound_to 924 
  -15.6891    7.4014   78.0234 LP  0  0  0  0  0  0  0  0  0  0  0  0  # atno 4696 bound_to 1471
  -15.0346    8.2464   76.7888 LP  0  0  0  0  0  0  0  0  0  0  0  0  # atno 4697 bound_to 1471
  -13.9528   18.2089   75.5393 LP  0  0  0  0  0  0  0  0  0  0  0  0  # atno 4731 bound_to 414 
  -15.4521   17.7292   75.1051 LP  0  0  0  0  0  0  0  0  0  0  0  0  # atno 4732 bound_to 414 
  -12.8159   15.1397   60.9685 LP  0  0  0  0  0  0  0  0  0  0  0  0  # atno 4733 bound_to 1114
  -14.2211   15.9121   61.2773 LP  0  0  0  0  0  0  0  0  0  0  0  0  # atno 4734 bound_to 1114
  -12.0950   15.3962   56.7393 LP  0  0  0  0  0  0  0  0  0  0  0  0  # atno 4763 bound_to 924 
  -11.2366   15.1631   58.1087 LP  0  0  0  0  0  0  0  0  0  0  0  0  # atno 4764 bound_to 924 
  -20.5223   12.6311   62.9798 LP  0  0  0  0  0  0  0  0  0  0  0  0  # atno 4771 bound_to 1244
  -20.9409   12.9107   64.5332 LP  0  0  0  0  0  0  0  0  0  0  0  0  # atno 4772 bound_to 1244
   -7.3554   23.7122   72.5148 LP  0  0  0  0  0  0  0  0  0  0  0  0  # atno 4775 bound_to 178 
   -6.0561   23.4398   71.5640 LP  0  0  0  0  0  0  0  0  0  0  0  0  # atno 4776 bound_to 178 
   -2.0710   23.4875   72.0015 LP  0  0  0  0  0  0  0  0  0  0  0  0  # atno 4779 bound_to 171 
   -3.5533   24.1716   71.9617 LP  0  0  0  0  0  0  0  0  0  0  0  0  # atno 4780 bound_to 171 
   -7.4104   26.6881   63.4499 LP  0  0  0  0  0  0  0  0  0  0  0  0  # atno 4783 bound_to 185 
   -8.8015   26.0282   63.9939 LP  0  0  0  0  0  0  0  0  0  0  0  0  # atno 4784 bound_to 185 
   -2.6802   16.7320   72.5470 LP  0  0  0  0  0  0  0  0  0  0  0  0  # atno 4785 bound_to 346 
   -1.9283   18.0759   73.0902 LP  0  0  0  0  0  0  0  0  0  0  0  0  # atno 4786 bound_to 346 
   -2.7477   22.0864   75.4145 LP  0  0  0  0  0  0  0  0  0  0  0  0  # atno 4787 bound_to 339 
   -3.6369   21.5343   74.1611 LP  0  0  0  0  0  0  0  0  0  0  0  0  # atno 4788 bound_to 339 
   -7.7382   29.9923   64.9527 LP  0  0  0  0  0  0  0  0  0  0  0  0  # atno 4797 bound_to 154 
   -8.4060   28.5681   65.3911 LP  0  0  0  0  0  0  0  0  0  0  0  0  # atno 4798 bound_to 154 

> <Gold.Score>
     Score     S(PLP)   S(hbond)     S(cho)   S(metal)  DE(clash)   DE(tors)     intcor
     40.63     -35.84       0.00       1.93       0.00       0.00       0.50       0.01

> <Gold.PLP.Fitness>
40.6307

> <Gold.PLP.PLP>
-35.8446

> <Gold.PLP.part.hbond>
0.0000

> <Gold.PLP.part.metal>
0.0000

> <Gold.PLP.part.buried>
-5.0054

> <Gold.PLP.part.nonpolar>
-31.1693

> <Gold.PLP.part.repulsive>
0.1517

> <Gold.PLP.ligand.clash>
0.0000

> <Gold.PLP.ligand.torsion>
0.5011

> <Gold.PLP.Chemscore.Hbond>
0.0000

> <Gold.PLP.Chemscore.CHOScore>
1.9274

> <Gold.PLP.Chemscore.Metal>
0.0000

> <Gold.Chemscore.Hbonds>
donor molecule, donor type, donor heavy atom, donor atom, acceptor molecule, acceptor atom, score
      L1  C     9    23       P1  1441  0.93
      L1  C    11    24       P1  1266  1.00

> <Gold.PLP.Chemscore.Internal.Correction>
0.0061

