#       Name:                unknown
#       Creating user name   williammccorkindale
#       Creation time:       Tue Jun  7 14:55:43 2022


#       File generated by GOLD software.
#

@<TRIPOS>MOLECULE
unknown|prepared_Mpro-x0397|mol2|1|dock2
    35    36     1
SMALL
NO_CHARGES


@<TRIPOS>ATOM
      1 C1         -12.7492  10.5298  70.5703 C.3            1 RES1               0.0000
      2 N2         -11.9971  11.6415  70.0274 N.am           1 RES1               0.0000
      3 C3         -11.0885  11.4105  68.9341 C.3            1 RES1               0.0000
      4 C4         -11.5348  12.0978  67.6911 C.2            1 RES1               0.0000
      5 C5         -11.5747  11.6297  66.3942 C.2            1 RES1               0.0000
      6 C6         -12.0739  12.6592  65.5877 C.2            1 RES1               0.0000
      7 C7         -12.2871  12.5963  64.1178 C.3            1 RES1               0.0000
      8 O8         -12.3056  13.6664  66.3993 O.3            1 RES1               0.0000
      9 N9         -11.9986  13.3586  67.6237 N.2            1 RES1               0.0000
     10 C10        -12.1988  12.9200  70.6117 C.2            1 RES1               0.0000
     11 O11        -11.5642  13.9340  70.2312 O.2            1 RES1               0.0000
     12 N12        -13.1354  13.1351  71.6687 N.am           1 RES1               0.0000
     13 C13        -13.3640  14.4136  72.2815 C.3            1 RES1               0.0000
     14 C14        -13.5326  15.5588  71.2725 C.3            1 RES1               0.0000
     15 C15        -14.7290  15.0700  72.0712 C.3            1 RES1               0.0000
     16 H16        -13.6781  10.8783  71.1001 H              1 RES1               0.0000
     17 H17        -12.1410  10.0417  71.3814 H              1 RES1               0.0000
     18 H18        -13.0695   9.8072  69.8188 H              1 RES1               0.0000
     19 H19        -10.0653  11.7128  69.2358 H              1 RES1               0.0000
     20 H20        -11.0245  10.2991  68.7641 H              1 RES1               0.0000
     21 H21        -11.2707  10.6445  66.0824 H              1 RES1               0.0000
     22 H22        -13.1001  13.2488  63.7791 H              1 RES1               0.0000
     23 H23        -12.5407  11.5530  63.7964 H              1 RES1               0.0000
     24 H24        -11.3332  12.8496  63.5848 H              1 RES1               0.0000
     25 H25        -13.6827  12.3239  72.0154 H              1 RES1               0.0000
     26 H26        -12.8339  14.6534  73.2318 H              1 RES1               0.0000
     27 H27        -13.4898  15.3151  70.1967 H              1 RES1               0.0000
     28 H28        -13.1049  16.5435  71.5498 H              1 RES1               0.0000
     29 H29        -15.0941  15.7688  72.8420 H              1 RES1               0.0000
     30 H30        -15.4411  14.4480  71.5218 H              1 RES1               0.0000
     31 ****       -13.2757  13.9050  66.3556 LP             1 RES1               0.0000
     32 ****       -11.7561  14.4509  66.1119 LP             1 RES1               0.0000
     33 ****       -12.0938  13.9733  68.4067 LP             1 RES1               0.0000
     34 ****       -10.8921  13.8560  69.4948 LP             1 RES1               0.0000
     35 ****       -11.7306  14.8197  70.6645 LP             1 RES1               0.0000
@<TRIPOS>BOND
    1    1    2 1     
    2    2    3 1     
    3    3    4 1     
    4    4    5 1     
    5    5    6 2     
    6    6    7 1     
    7    6    8 1     
    8    8    9 1     
    9    2   10 am    
   10   10   11 2     
   11   10   12 am    
   12   12   13 1     
   13   13   14 1     
   14   14   15 1     
   15    4    9 2     
   16   15   13 1     
   17    1   16 1     
   18    1   17 1     
   19    1   18 1     
   20    3   19 1     
   21    3   20 1     
   22    5   21 1     
   23    7   22 1     
   24    7   23 1     
   25    7   24 1     
   26   12   25 1     
   27   13   26 1     
   28   14   27 1     
   29   14   28 1     
   30   15   29 1     
   31   15   30 1     
   32    8   31 1     
   33    8   32 1     
   34    9   33 1     
   35   11   34 1     
   36   11   35 1     
@<TRIPOS>SUBSTRUCTURE
      1 RES1           1
@<TRIPOS>SET
LONE_PAIRS      STATIC     ATOMS    <user>   **** ""
5 31 32 33 34 35
DONOR_HYDROGENS      STATIC     ATOMS    <user>   **** ""
1 25
ATOM$BLUE        STATIC     ATOMS    COLORGROUP SYSTEM
5 31 32 33 34 35
ATOM$RED        STATIC     ATOMS    COLORGROUP SYSTEM
1 25
@<TRIPOS>COMMENT
> <Gold.Version>
2022.1.0

> <Gold.Id.Protein>
6LU7|6LU7_protein|mol2

> <Gold.Protein.RotatedTorsions>
[ 3973 1471 1470 1467 ] final  117.14 input   60.00 | X-H torsion
[ 3372  414  413  411 ] final  128.88 input   60.00 | X-H torsion
[ 4268 1114 1113 1110 ] final  132.93 input   59.99 | X-H torsion
[ 4409  924  923  921 ] final   71.47 input   59.99 | X-H torsion
[ 4183 1244 1243 1241 ] final  128.49 input   59.99 | X-H torsion
[ 3800  178  177  174 ] final  -93.25 input   60.00 | X-H torsion
[ 3793  171  170  167 ] final  -74.49 input   60.00 | X-H torsion
[ 3576  185  184  181 ] final -148.73 input   60.00 | X-H torsion
[ 3523  346  345  342 ] final    9.48 input   60.01 | X-H torsion
[ 3515  339  338  335 ] final  122.89 input   60.00 | X-H torsion
[ 3663  154  153  150 ] final  -38.48 input   60.00 | X-H torsion
[ 4280 1130 1129 1126 ] final -136.91 input   60.00 | X-H torsion

> <Gold.Protein.ActiveResidues>
 VAL20   THR21   CYS22   GLY23   THR24   THR25   THR26   LEU27   ASN28   PRO39  
 ARG40   HIS41   VAL42   CYS44   THR45   SER46   ASP48   MET49   LEU50   PRO52  
 TYR54   TYR118  ASN119  ILE136  GLY138  SER139  PHE140  LEU141  ASN142  GLY143 
 SER144  CYS145  GLY146  SER147  TYR161  HIS163  HIS164  MET165  GLU166  LEU167 
 PRO168  THR169  GLY170  VAL171  HIS172  ALA173  PHE181  PHE185  VAL186  ASP187 
 ARG188  GLN189  THR190  ALA191  GLN192  ALA193 

> <Gold.Protein.RotatedAtoms>
  -14.3750   17.1515   76.3917 H   0  0  0  0  0  0  0  0  0  0  0  0  # atno 3372 bound_to 414 
   -3.0844   22.2975   74.8394 H   0  0  0  0  0  0  0  0  0  0  0  0  # atno 3515 bound_to 339 
   -3.5257   18.0860   72.9704 H   0  0  0  0  0  0  0  0  0  0  0  0  # atno 3523 bound_to 346 
   -7.2315   25.6679   63.0485 H   0  0  0  0  0  0  0  0  0  0  0  0  # atno 3576 bound_to 185 
   -7.9476   28.2548   65.5036 H   0  0  0  0  0  0  0  0  0  0  0  0  # atno 3663 bound_to 154 
   -2.5999   24.9827   72.7354 H   0  0  0  0  0  0  0  0  0  0  0  0  # atno 3793 bound_to 171 
   -6.9663   22.2879   71.5760 H   0  0  0  0  0  0  0  0  0  0  0  0  # atno 3800 bound_to 178 
  -15.6896    7.4207   78.0484 H   0  0  0  0  0  0  0  0  0  0  0  0  # atno 3973 bound_to 1471
  -20.2960   12.8890   62.8782 H   0  0  0  0  0  0  0  0  0  0  0  0  # atno 4183 bound_to 1244
  -14.0329   15.5151   60.9318 H   0  0  0  0  0  0  0  0  0  0  0  0  # atno 4268 bound_to 1114
  -16.2085   18.9839   58.0577 H   0  0  0  0  0  0  0  0  0  0  0  0  # atno 4280 bound_to 1130
  -10.6880   14.9708   56.4749 H   0  0  0  0  0  0  0  0  0  0  0  0  # atno 4409 bound_to 924 
  -15.0419    8.2166   76.7855 LP  0  0  0  0  0  0  0  0  0  0  0  0  # atno 4696 bound_to 1471
  -15.3004    8.9936   78.1983 LP  0  0  0  0  0  0  0  0  0  0  0  0  # atno 4697 bound_to 1471
  -14.1673   18.3246   75.2831 LP  0  0  0  0  0  0  0  0  0  0  0  0  # atno 4731 bound_to 414 
  -15.5560   17.4660   75.3172 LP  0  0  0  0  0  0  0  0  0  0  0  0  # atno 4732 bound_to 414 
  -13.4143   16.4536   62.1085 LP  0  0  0  0  0  0  0  0  0  0  0  0  # atno 4733 bound_to 1114
  -12.4620   15.3773   61.3331 LP  0  0  0  0  0  0  0  0  0  0  0  0  # atno 4734 bound_to 1114
  -12.1717   15.4234   56.9667 LP  0  0  0  0  0  0  0  0  0  0  0  0  # atno 4763 bound_to 924 
  -11.0093   15.0940   58.0653 LP  0  0  0  0  0  0  0  0  0  0  0  0  # atno 4764 bound_to 924 
  -21.0397   12.6509   64.3058 LP  0  0  0  0  0  0  0  0  0  0  0  0  # atno 4771 bound_to 1244
  -20.0320   13.9207   64.1086 LP  0  0  0  0  0  0  0  0  0  0  0  0  # atno 4772 bound_to 1244
   -7.5299   23.4900   72.5170 LP  0  0  0  0  0  0  0  0  0  0  0  0  # atno 4775 bound_to 178 
   -6.1188   23.6701   71.7151 LP  0  0  0  0  0  0  0  0  0  0  0  0  # atno 4776 bound_to 178 
   -1.8923   23.6405   72.1476 LP  0  0  0  0  0  0  0  0  0  0  0  0  # atno 4779 bound_to 171 
   -3.4697   23.9348   71.8449 LP  0  0  0  0  0  0  0  0  0  0  0  0  # atno 4780 bound_to 171 
   -8.0485   26.8347   63.8353 LP  0  0  0  0  0  0  0  0  0  0  0  0  # atno 4783 bound_to 185 
   -8.6767   25.3320   63.7166 LP  0  0  0  0  0  0  0  0  0  0  0  0  # atno 4784 bound_to 185 
   -2.7298   16.7324   72.5432 LP  0  0  0  0  0  0  0  0  0  0  0  0  # atno 4785 bound_to 346 
   -1.9027   18.0352   73.0776 LP  0  0  0  0  0  0  0  0  0  0  0  0  # atno 4786 bound_to 346 
   -3.6368   20.8538   74.3311 LP  0  0  0  0  0  0  0  0  0  0  0  0  # atno 4787 bound_to 339 
   -2.7476   20.9560   75.6968 LP  0  0  0  0  0  0  0  0  0  0  0  0  # atno 4788 bound_to 339 
   -6.7166   29.2759   65.2040 LP  0  0  0  0  0  0  0  0  0  0  0  0  # atno 4797 bound_to 154 
   -8.2597   29.7738   65.0105 LP  0  0  0  0  0  0  0  0  0  0  0  0  # atno 4798 bound_to 154 

> <Gold.Score>
     Score     S(PLP)   S(hbond)     S(cho)   S(metal)  DE(clash)   DE(tors)     intcor
     39.93     -40.57       0.00       0.00       0.00       0.00       0.34       0.05

> <Gold.PLP.Fitness>
39.9292

> <Gold.PLP.PLP>
-40.5726

> <Gold.PLP.part.hbond>
0.0000

> <Gold.PLP.part.metal>
0.0000

> <Gold.PLP.part.buried>
-6.7230

> <Gold.PLP.part.nonpolar>
-35.6961

> <Gold.PLP.part.repulsive>
0.7039

> <Gold.PLP.ligand.clash>
0.0000

> <Gold.PLP.ligand.torsion>
0.3449

> <Gold.PLP.Chemscore.Hbond>
0.0000

> <Gold.PLP.Chemscore.CHOScore>
0.0000

> <Gold.PLP.Chemscore.Metal>
0.0000

> <Gold.PLP.Chemscore.Internal.Correction>
0.0464

