unknown|prepared_Mpro-x0995|sdf|1|dock5
  -GOLD-   5 72214353D 1   1.00000     0.00000

 12 12  0  0  0  0  0  0  0  0  1 V2000
  -12.8780   15.9010   74.7654 N   0  0  0  0  0  0  0  0  0  0  0  0
  -12.8937   15.6759   73.3594 C   0  0  0  0  0  0  0  0  0  0  0  0
  -14.0444   15.2543   72.7247 C   0  0  0  0  0  0  0  0  0  0  0  0
  -14.0496   15.0448   71.3998 N   0  0  0  0  0  0  0  0  0  0  0  0
  -12.9588   15.2298   70.6343 C   0  0  0  0  0  0  0  0  0  0  0  0
  -11.8408   15.6402   71.2560 N   0  0  0  0  0  0  0  0  0  0  0  0
  -11.7655   15.8692   72.5799 C   0  0  0  0  0  0  0  0  0  0  0  0
  -13.7175   15.7610   75.3698 H   0  0  0  0  0  0  0  0  0  0  0  0
  -11.9891   16.2208   75.2186 H   0  0  0  0  0  0  0  0  0  0  0  0
  -14.9279   15.1054   73.3504 H   0  0  0  0  0  0  0  0  0  0  0  0
  -12.9860   15.0520   69.5507 H   0  0  0  0  0  0  0  0  0  0  0  0
  -10.8694   16.1970   73.0712 H   0  0  0  0  0  0  0  0  0  0  0  0
  1  2  1  0  0  0  0
  2  3  2  0  0  0  0
  3  4  1  0  0  0  0
  4  5  2  0  0  0  0
  5  6  1  0  0  0  0
  6  7  2  0  0  0  0
  2  7  1  0  0  0  0
  1  8  1  0  0  0  0
  1  9  1  0  0  0  0
  3 10  1  0  0  0  0
  5 11  1  0  0  0  0
  7 12  1  0  0  0  0
M  END
> <Gold.Version>
2022.1.0

> <Gold.Id.Protein>
6LU7|6LU7_protein|mol2

> <Gold.PLP.Fitness>
28.4416

> <Gold.PLP.PLP>
-22.9059

> <Gold.PLP.part.hbond>
-2.0000

> <Gold.PLP.part.metal>
0.0000

> <Gold.PLP.part.buried>
-5.3696

> <Gold.PLP.part.nonpolar>
-16.4821

> <Gold.PLP.part.repulsive>
0.3595

> <Gold.PLP.ligand.clash>
0.0000

> <Gold.PLP.ligand.torsion>
0.0000

> <Gold.PLP.Chemscore.Hbond>
1.0000

> <Gold.PLP.Chemscore.CHOScore>
0.8452

> <Gold.PLP.Chemscore.Metal>
0.0000

> <Gold.Chemscore.Hbonds>
donor molecule, donor type, donor heavy atom, donor atom, acceptor molecule, acceptor atom, score
      L1  H     1     8       P1  1441  1.00
      L1  C     5    11       P1  1266  0.85

> <Gold.PLP.Chemscore.Internal.Correction>
0.0000

> <Gold.Protein.RotatedTorsions>
[ 3973 1471 1470 1467 ] final   31.88 input   60.00 | X-H torsion
[ 3372  414  413  411 ] final  143.92 input   60.00 | X-H torsion
[ 4268 1114 1113 1110 ] final  -64.86 input   59.99 | X-H torsion
[ 4409  924  923  921 ] final   14.84 input   59.99 | X-H torsion
[ 4183 1244 1243 1241 ] final -177.62 input   59.99 | X-H torsion
[ 3800  178  177  174 ] final  -92.79 input   60.00 | X-H torsion
[ 3793  171  170  167 ] final  179.95 input   60.00 | X-H torsion
[ 3576  185  184  181 ] final -100.15 input   60.00 | X-H torsion
[ 3523  346  345  342 ] final -152.71 input   60.01 | X-H torsion
[ 3515  339  338  335 ] final  147.09 input   60.00 | X-H torsion
[ 3663  154  153  150 ] final  -79.54 input   60.00 | X-H torsion
[ 4280 1130 1129 1126 ] final -177.01 input   60.00 | X-H torsion

> <Gold.Protein.ActiveResidues>
 VAL20   THR21   CYS22   GLY23   THR24   THR25   THR26   LEU27   ASN28   PRO39  
 ARG40   HIS41   VAL42   CYS44   THR45   SER46   ASP48   MET49   LEU50   PRO52  
 TYR54   TYR118  ASN119  ILE136  GLY138  SER139  PHE140  LEU141  ASN142  GLY143 
 SER144  CYS145  GLY146  SER147  TYR161  HIS163  HIS164  MET165  GLU166  LEU167 
 PRO168  THR169  GLY170  VAL171  HIS172  ALA173  PHE181  PHE185  VAL186  ASP187 
 ARG188  GLN189  THR190  ALA191  GLN192  ALA193 

> <Gold.Protein.RotatedAtoms>
  -14.5927   17.0408   76.3719 H   0  0  0  0  0  0  0  0  0  0  0  0  # atno 3372 bound_to 414 
   -2.8818   22.2401   75.1707 H   0  0  0  0  0  0  0  0  0  0  0  0  # atno 3515 bound_to 339 
   -2.1006   16.9449   72.6719 H   0  0  0  0  0  0  0  0  0  0  0  0  # atno 3523 bound_to 346 
   -7.7559   25.1153   63.1616 H   0  0  0  0  0  0  0  0  0  0  0  0  # atno 3576 bound_to 185 
   -7.2913   28.2752   65.5120 H   0  0  0  0  0  0  0  0  0  0  0  0  # atno 3663 bound_to 154 
   -1.7967   23.8131   72.2775 H   0  0  0  0  0  0  0  0  0  0  0  0  # atno 3793 bound_to 171 
   -6.9598   22.2887   71.5724 H   0  0  0  0  0  0  0  0  0  0  0  0  # atno 3800 bound_to 178 
  -15.2243    7.6991   76.9021 H   0  0  0  0  0  0  0  0  0  0  0  0  # atno 3973 bound_to 1471
  -19.8953   13.5859   63.1497 H   0  0  0  0  0  0  0  0  0  0  0  0  # atno 4183 bound_to 1244
  -12.4440   15.8486   61.8184 H   0  0  0  0  0  0  0  0  0  0  0  0  # atno 4268 bound_to 1114
  -15.9012   18.6205   58.4884 H   0  0  0  0  0  0  0  0  0  0  0  0  # atno 4280 bound_to 1130
  -11.5144   15.2153   56.2604 H   0  0  0  0  0  0  0  0  0  0  0  0  # atno 4409 bound_to 924 
  -15.0938    9.1172   77.6895 LP  0  0  0  0  0  0  0  0  0  0  0  0  # atno 4696 bound_to 1471
  -15.7171    7.8127   78.4488 LP  0  0  0  0  0  0  0  0  0  0  0  0  # atno 4697 bound_to 1471
  -14.0081   18.2535   75.4577 LP  0  0  0  0  0  0  0  0  0  0  0  0  # atno 4731 bound_to 414 
  -15.4960   17.6486   75.1625 LP  0  0  0  0  0  0  0  0  0  0  0  0  # atno 4732 bound_to 414 
  -13.4789   15.1638   60.7657 LP  0  0  0  0  0  0  0  0  0  0  0  0  # atno 4733 bound_to 1114
  -13.9977   16.3311   61.7830 LP  0  0  0  0  0  0  0  0  0  0  0  0  # atno 4734 bound_to 1114
  -11.9309   15.3667   57.8262 LP  0  0  0  0  0  0  0  0  0  0  0  0  # atno 4763 bound_to 924 
  -10.4178   14.9045   57.4218 LP  0  0  0  0  0  0  0  0  0  0  0  0  # atno 4764 bound_to 924 
  -20.9213   12.3742   63.5061 LP  0  0  0  0  0  0  0  0  0  0  0  0  # atno 4771 bound_to 1244
  -20.5540   13.4956   64.6349 LP  0  0  0  0  0  0  0  0  0  0  0  0  # atno 4772 bound_to 1244
   -7.5338   23.4835   72.5163 LP  0  0  0  0  0  0  0  0  0  0  0  0  # atno 4775 bound_to 178 
   -6.1214   23.6757   71.7195 LP  0  0  0  0  0  0  0  0  0  0  0  0  # atno 4776 bound_to 178 
   -3.3421   23.7489   71.7721 LP  0  0  0  0  0  0  0  0  0  0  0  0  # atno 4779 bound_to 171 
   -2.8289   25.0044   72.6816 LP  0  0  0  0  0  0  0  0  0  0  0  0  # atno 4780 bound_to 171 
   -7.3992   26.6782   63.4410 LP  0  0  0  0  0  0  0  0  0  0  0  0  # atno 4783 bound_to 185 
   -8.7979   26.0450   63.9970 LP  0  0  0  0  0  0  0  0  0  0  0  0  # atno 4784 bound_to 185 
   -2.4256   18.4539   73.1871 LP  0  0  0  0  0  0  0  0  0  0  0  0  # atno 4785 bound_to 346 
   -3.6420   17.4629   72.7343 LP  0  0  0  0  0  0  0  0  0  0  0  0  # atno 4786 bound_to 346 
   -3.6737   21.2182   74.1825 LP  0  0  0  0  0  0  0  0  0  0  0  0  # atno 4787 bound_to 339 
   -2.9148   20.6494   75.5118 LP  0  0  0  0  0  0  0  0  0  0  0  0  # atno 4788 bound_to 339 
   -7.0618   29.8111   65.0257 LP  0  0  0  0  0  0  0  0  0  0  0  0  # atno 4797 bound_to 154 
   -8.5755   29.2181   65.1803 LP  0  0  0  0  0  0  0  0  0  0  0  0  # atno 4798 bound_to 154 

$$$$
