#       Name:                xxxx
#       Creating user name   williammccorkindale
#       Creation time:       Tue Jun  7 11:03:36 2022


#       File generated by GOLD software.
#

@<TRIPOS>MOLECULE
xxxx|x0072|mol2|1|dock2
    26    26     1
SMALL
NO_CHARGES


@<TRIPOS>ATOM
      1 C01         -9.3272  11.2431  67.9786 C.3            1 LIG1101            0.0000
      2 S02        -10.9281  11.0603  68.8125 S.o2           1 LIG1101            0.0000
      3 O03        -11.0107   9.8065  69.5676 O.2            1 LIG1101            0.0000
      4 O04        -12.0027  10.8467  67.8581 O.2            1 LIG1101            0.0000
      5 N05        -11.2420  12.4237  69.7857 N.pl3          1 LIG1101            0.0000
      6 C06        -12.1573  13.4047  69.2622 C.3            1 LIG1101            0.0000
      7 C07        -11.8066  14.8497  69.5884 C.3            1 LIG1101            0.0000
      8 C08        -12.3321  15.0688  70.9987 C.ar           1 LIG1101            0.0000
      9 C09        -13.6659  14.8471  71.3152 C.ar           1 LIG1101            0.0000
     10 C10        -14.0955  15.0381  72.6179 C.ar           1 LIG1101            0.0000
     11 C11        -13.1949  15.4193  73.6000 C.ar           1 LIG1101            0.0000
     12 C12        -11.8598  15.6276  73.2800 C.ar           1 LIG1101            0.0000
     13 C13        -11.4357  15.4468  71.9787 C.ar           1 LIG1101            0.0000
     14 H1          -9.1830  10.4166  67.2842 H              1 LIG1101            0.0000
     15 H2          -9.3083  12.1844  67.4314 H              1 LIG1101            0.0000
     16 H3          -8.5292  11.2379  68.7197 H              1 LIG1101            0.0000
     17 H4         -10.8035  12.5393  70.6936 H              1 LIG1101            0.0000
     18 H5         -13.1454  13.1964  69.6699 H              1 LIG1101            0.0000
     19 H6         -12.1822  13.2993  68.1785 H              1 LIG1101            0.0000
     20 H7         -12.2911  15.5293  68.8888 H              1 LIG1101            0.0000
     21 H8         -10.7286  15.0000  69.5531 H              1 LIG1101            0.0000
     22 H9         -14.3674  14.5261  70.5465 H              1 LIG1101            0.0000
     23 H10        -15.1440  14.8883  72.8713 H              1 LIG1101            0.0000
     24 H11        -13.5352  15.5559  74.6255 H              1 LIG1101            0.0000
     25 H12        -11.1523  15.9313  74.0502 H              1 LIG1101            0.0000
     26 H13        -10.3886  15.6031  71.7238 H              1 LIG1101            0.0000
@<TRIPOS>BOND
    1    1    2 1     
    2    2    3 2     
    3    2    4 2     
    4    2    5 1     
    5    5    6 1     
    6    6    7 1     
    7    7    8 1     
    8    8    9 ar    
    9    9   10 ar    
   10   10   11 ar    
   11   11   12 ar    
   12    8   13 ar    
   13   12   13 ar    
   14    1   14 1     
   15    1   15 1     
   16    1   16 1     
   17    5   17 1     
   18    6   18 1     
   19    6   19 1     
   20    7   20 1     
   21    7   21 1     
   22    9   22 1     
   23   10   23 1     
   24   11   24 1     
   25   12   25 1     
   26   13   26 1     
@<TRIPOS>SUBSTRUCTURE
      1 LIG1101        1
@<TRIPOS>SET
LONE_PAIRS      STATIC     ATOMS    <user>   **** ""
2 3 4
DONOR_HYDROGENS      STATIC     ATOMS    <user>   **** ""
1 17
ATOM$BLUE        STATIC     ATOMS    COLORGROUP SYSTEM
2 3 4
ATOM$RED        STATIC     ATOMS    COLORGROUP SYSTEM
1 17
@<TRIPOS>COMMENT
> <Gold.Version>
2022.1.0

> <Gold.Id.Protein>
6LU7|6LU7_protein|mol2

> <Gold.Protein.RotatedTorsions>
[ 3973 1471 1470 1467 ] final -111.02 input   60.00 | X-H torsion
[ 3372  414  413  411 ] final -117.29 input   60.00 | X-H torsion
[ 4268 1114 1113 1110 ] final  -62.51 input   59.99 | X-H torsion
[ 4409  924  923  921 ] final   43.22 input   59.99 | X-H torsion
[ 4183 1244 1243 1241 ] final -124.55 input   59.99 | X-H torsion
[ 3800  178  177  174 ] final   15.49 input   60.00 | X-H torsion
[ 3793  171  170  167 ] final -176.17 input   60.00 | X-H torsion
[ 3576  185  184  181 ] final   22.47 input   60.00 | X-H torsion
[ 3523  346  345  342 ] final   90.68 input   60.01 | X-H torsion
[ 3515  339  338  335 ] final   58.81 input   60.00 | X-H torsion
[ 3663  154  153  150 ] final  158.39 input   60.00 | X-H torsion
[ 4280 1130 1129 1126 ] final   15.03 input   60.00 | X-H torsion

> <Gold.Protein.ActiveResidues>
 VAL20   THR21   CYS22   GLY23   THR24   THR25   THR26   LEU27   ASN28   PRO39  
 ARG40   HIS41   VAL42   CYS44   THR45   SER46   ASP48   MET49   LEU50   PRO52  
 TYR54   TYR118  ASN119  ILE136  GLY138  SER139  PHE140  LEU141  ASN142  GLY143 
 SER144  CYS145  GLY146  SER147  TYR161  HIS163  HIS164  MET165  GLU166  LEU167 
 PRO168  THR169  GLY170  VAL171  HIS172  ALA173  PHE181  PHE185  VAL186  ASP187 
 ARG188  GLN189  THR190  ALA191  GLN192  ALA193 

> <Gold.Protein.RotatedAtoms>
  -15.5586   17.3972   75.3917 H   0  0  0  0  0  0  0  0  0  0  0  0  # atno 3372 bound_to 414 
   -3.5840   21.7235   74.2010 H   0  0  0  0  0  0  0  0  0  0  0  0  # atno 3515 bound_to 339 
   -2.3759   18.4280   73.1842 H   0  0  0  0  0  0  0  0  0  0  0  0  # atno 3523 bound_to 346 
   -8.7809   26.0847   64.0027 H   0  0  0  0  0  0  0  0  0  0  0  0  # atno 3576 bound_to 185 
   -7.0928   29.8259   65.0227 H   0  0  0  0  0  0  0  0  0  0  0  0  # atno 3663 bound_to 154 
   -1.7787   23.8627   72.3128 H   0  0  0  0  0  0  0  0  0  0  0  0  # atno 3793 bound_to 171 
   -6.0764   23.5219   71.6137 H   0  0  0  0  0  0  0  0  0  0  0  0  # atno 3800 bound_to 178 
  -15.2228    9.0651   78.0357 H   0  0  0  0  0  0  0  0  0  0  0  0  # atno 3973 bound_to 1471
  -19.9511   13.9273   63.9113 H   0  0  0  0  0  0  0  0  0  0  0  0  # atno 4183 bound_to 1244
  -12.4569   15.8759   61.8419 H   0  0  0  0  0  0  0  0  0  0  0  0  # atno 4268 bound_to 1114
  -15.9558   20.3063   59.2770 H   0  0  0  0  0  0  0  0  0  0  0  0  # atno 4280 bound_to 1130
  -11.0748   15.0831   56.2592 H   0  0  0  0  0  0  0  0  0  0  0  0  # atno 4409 bound_to 924 
  -15.7174    7.5246   78.2097 LP  0  0  0  0  0  0  0  0  0  0  0  0  # atno 4696 bound_to 1471
  -15.0949    8.0296   76.7870 LP  0  0  0  0  0  0  0  0  0  0  0  0  # atno 4697 bound_to 1471
  -14.2875   17.2027   76.3889 LP  0  0  0  0  0  0  0  0  0  0  0  0  # atno 4731 bound_to 414 
  -14.2439   18.3405   75.2184 LP  0  0  0  0  0  0  0  0  0  0  0  0  # atno 4732 bound_to 414 
  -13.4419   15.1529   60.7672 LP  0  0  0  0  0  0  0  0  0  0  0  0  # atno 4733 bound_to 1114
  -14.0217   16.3145   61.7577 LP  0  0  0  0  0  0  0  0  0  0  0  0  # atno 4734 bound_to 1114
  -12.1552   15.4268   57.4265 LP  0  0  0  0  0  0  0  0  0  0  0  0  # atno 4763 bound_to 924 
  -10.6361   14.9774   57.8227 LP  0  0  0  0  0  0  0  0  0  0  0  0  # atno 4764 bound_to 924 
  -20.4284   12.7274   62.9213 LP  0  0  0  0  0  0  0  0  0  0  0  0  # atno 4771 bound_to 1244
  -20.9907   12.7986   64.4528 LP  0  0  0  0  0  0  0  0  0  0  0  0  # atno 4772 bound_to 1244
   -7.1231   22.2773   71.6727 LP  0  0  0  0  0  0  0  0  0  0  0  0  # atno 4775 bound_to 178 
   -7.4217   23.6400   72.5216 LP  0  0  0  0  0  0  0  0  0  0  0  0  # atno 4776 bound_to 178 
   -3.3000   23.7032   71.7575 LP  0  0  0  0  0  0  0  0  0  0  0  0  # atno 4779 bound_to 171 
   -2.8891   25.0001   72.6607 LP  0  0  0  0  0  0  0  0  0  0  0  0  # atno 4780 bound_to 171 
   -7.7925   25.0942   63.1721 LP  0  0  0  0  0  0  0  0  0  0  0  0  # atno 4783 bound_to 185 
   -7.3722   26.6527   63.4188 LP  0  0  0  0  0  0  0  0  0  0  0  0  # atno 4784 bound_to 185 
   -3.6517   17.5149   72.7523 LP  0  0  0  0  0  0  0  0  0  0  0  0  # atno 4785 bound_to 346 
   -2.1388   16.9082   72.6532 LP  0  0  0  0  0  0  0  0  0  0  0  0  # atno 4786 bound_to 346 
   -3.1923   20.4452   75.1286 LP  0  0  0  0  0  0  0  0  0  0  0  0  # atno 4787 bound_to 339 
   -2.6890   21.9426   75.5422 LP  0  0  0  0  0  0  0  0  0  0  0  0  # atno 4788 bound_to 339 
   -8.5796   29.1860   65.1905 LP  0  0  0  0  0  0  0  0  0  0  0  0  # atno 4797 bound_to 154 
   -7.2576   28.2815   65.5084 LP  0  0  0  0  0  0  0  0  0  0  0  0  # atno 4798 bound_to 154 

> <Gold.Score>
     Score     S(PLP)   S(hbond)     S(cho)   S(metal)  DE(clash)   DE(tors)     intcor
     43.15     -38.22       1.90       0.00       0.00       0.00       0.89       1.03

> <Gold.PLP.Fitness>
43.1464

> <Gold.PLP.PLP>
-38.2194

> <Gold.PLP.part.hbond>
-2.0000

> <Gold.PLP.part.metal>
0.0000

> <Gold.PLP.part.buried>
-5.1573

> <Gold.PLP.part.nonpolar>
-31.9835

> <Gold.PLP.part.repulsive>
0.2345

> <Gold.PLP.ligand.clash>
0.0000

> <Gold.PLP.ligand.torsion>
0.8943

> <Gold.PLP.Chemscore.Hbond>
1.8960

> <Gold.PLP.Chemscore.CHOScore>
0.0000

> <Gold.PLP.Chemscore.Metal>
0.0000

> <Gold.Chemscore.Hbonds>
donor molecule, donor type, donor heavy atom, donor atom, acceptor molecule, acceptor atom, score
      L1  H     5    17       P1  1464  0.90
      P1  H  1281  4132       L1     4  1.00

> <Gold.PLP.Chemscore.Internal.Correction>
1.0275

