unknown|prepared_Mpro-x0995|sdf|1|dock4
  -GOLD-   5 72214353D 1   1.00000     0.00000

 12 12  0  0  0  0  0  0  0  0  1 V2000
  -13.0604   16.1902   74.6222 N   0  0  0  0  0  0  0  0  0  0  0  0
  -12.9280   15.7262   73.2825 C   0  0  0  0  0  0  0  0  0  0  0  0
  -11.7014   15.7363   72.6498 C   0  0  0  0  0  0  0  0  0  0  0  0
  -11.5864   15.2973   71.3876 N   0  0  0  0  0  0  0  0  0  0  0  0
  -12.6359   14.8338   70.6848 C   0  0  0  0  0  0  0  0  0  0  0  0
  -13.8279   14.8257   71.3043 N   0  0  0  0  0  0  0  0  0  0  0  0
  -14.0144   15.2508   72.5673 C   0  0  0  0  0  0  0  0  0  0  0  0
  -12.2540   16.5520   75.1775 H   0  0  0  0  0  0  0  0  0  0  0  0
  -14.0048   16.1701   75.0755 H   0  0  0  0  0  0  0  0  0  0  0  0
  -10.8518   16.1137   73.2244 H   0  0  0  0  0  0  0  0  0  0  0  0
  -12.5184   14.4792   69.6519 H   0  0  0  0  0  0  0  0  0  0  0  0
  -14.9693   15.2420   73.0571 H   0  0  0  0  0  0  0  0  0  0  0  0
  1  2  1  0  0  0  0
  2  3  2  0  0  0  0
  3  4  1  0  0  0  0
  4  5  2  0  0  0  0
  5  6  1  0  0  0  0
  6  7  2  0  0  0  0
  2  7  1  0  0  0  0
  1  8  1  0  0  0  0
  1  9  1  0  0  0  0
  3 10  1  0  0  0  0
  5 11  1  0  0  0  0
  7 12  1  0  0  0  0
M  END
> <Gold.Version>
2022.1.0

> <Gold.Id.Protein>
6LU7|6LU7_protein|mol2

> <Gold.PLP.Fitness>
27.2969

> <Gold.PLP.PLP>
-24.2969

> <Gold.PLP.part.hbond>
-2.0000

> <Gold.PLP.part.metal>
0.0000

> <Gold.PLP.part.buried>
-6.0144

> <Gold.PLP.part.nonpolar>
-17.0201

> <Gold.PLP.part.repulsive>
0.3118

> <Gold.PLP.ligand.clash>
0.0000

> <Gold.PLP.ligand.torsion>
0.0000

> <Gold.PLP.Chemscore.Hbond>
1.0000

> <Gold.PLP.Chemscore.CHOScore>
0.0000

> <Gold.PLP.Chemscore.Metal>
0.0000

> <Gold.Chemscore.Hbonds>
donor molecule, donor type, donor heavy atom, donor atom, acceptor molecule, acceptor atom, score
      L1  H     1     9       P1  1441  1.00

> <Gold.PLP.Chemscore.Internal.Correction>
0.0000

> <Gold.Protein.RotatedTorsions>
[ 3973 1471 1470 1467 ] final   82.89 input   60.00 | X-H torsion
[ 3372  414  413  411 ] final    4.14 input   60.00 | X-H torsion
[ 4268 1114 1113 1110 ] final -152.62 input   59.99 | X-H torsion
[ 4409  924  923  921 ] final -151.25 input   59.99 | X-H torsion
[ 4183 1244 1243 1241 ] final  -74.03 input   59.99 | X-H torsion
[ 3800  178  177  174 ] final -142.71 input   60.00 | X-H torsion
[ 3793  171  170  167 ] final   69.22 input   60.00 | X-H torsion
[ 3576  185  184  181 ] final  151.44 input   60.00 | X-H torsion
[ 3523  346  345  342 ] final   70.06 input   60.01 | X-H torsion
[ 3515  339  338  335 ] final  106.23 input   60.00 | X-H torsion
[ 3663  154  153  150 ] final -170.81 input   60.00 | X-H torsion
[ 4280 1130 1129 1126 ] final  -57.38 input   60.00 | X-H torsion

> <Gold.Protein.ActiveResidues>
 VAL20   THR21   CYS22   GLY23   THR24   THR25   THR26   LEU27   ASN28   PRO39  
 ARG40   HIS41   VAL42   CYS44   THR45   SER46   ASP48   MET49   LEU50   PRO52  
 TYR54   TYR118  ASN119  ILE136  GLY138  SER139  PHE140  LEU141  ASN142  GLY143 
 SER144  CYS145  GLY146  SER147  TYR161  HIS163  HIS164  MET165  GLU166  LEU167 
 PRO168  THR169  GLY170  VAL171  HIS172  ALA173  PHE181  PHE185  VAL186  ASP187 
 ARG188  GLN189  THR190  ALA191  GLN192  ALA193 

> <Gold.Protein.RotatedAtoms>
  -14.2298   18.3342   75.2375 H   0  0  0  0  0  0  0  0  0  0  0  0  # atno 3372 bound_to 414 
   -3.2335   22.2418   74.6199 H   0  0  0  0  0  0  0  0  0  0  0  0  # atno 3515 bound_to 339 
   -2.7035   18.4987   73.1838 H   0  0  0  0  0  0  0  0  0  0  0  0  # atno 3523 bound_to 346 
   -7.2940   26.5499   63.3487 H   0  0  0  0  0  0  0  0  0  0  0  0  # atno 3576 bound_to 185 
   -6.7823   29.4581   65.1468 H   0  0  0  0  0  0  0  0  0  0  0  0  # atno 3663 bound_to 154 
   -3.2319   23.6484   71.7426 H   0  0  0  0  0  0  0  0  0  0  0  0  # atno 3793 bound_to 171 
   -7.5483   22.5104   72.0507 H   0  0  0  0  0  0  0  0  0  0  0  0  # atno 3800 bound_to 178 
  -15.5462    7.3065   77.5285 H   0  0  0  0  0  0  0  0  0  0  0  0  # atno 3973 bound_to 1471
  -20.3839   13.6772   64.5344 H   0  0  0  0  0  0  0  0  0  0  0  0  # atno 4183 bound_to 1244
  -12.9737   15.1163   60.8869 H   0  0  0  0  0  0  0  0  0  0  0  0  # atno 4268 bound_to 1114
  -16.4043   20.1444   58.2791 H   0  0  0  0  0  0  0  0  0  0  0  0  # atno 4280 bound_to 1130
  -11.2763   15.1773   58.1033 H   0  0  0  0  0  0  0  0  0  0  0  0  # atno 4409 bound_to 924 
  -14.9665    8.7279   76.9884 LP  0  0  0  0  0  0  0  0  0  0  0  0  # atno 4696 bound_to 1471
  -15.5201    8.5973   78.5191 LP  0  0  0  0  0  0  0  0  0  0  0  0  # atno 4697 bound_to 1471
  -15.5628   17.4104   75.3714 LP  0  0  0  0  0  0  0  0  0  0  0  0  # atno 4731 bound_to 414 
  -14.3067   17.1891   76.3912 LP  0  0  0  0  0  0  0  0  0  0  0  0  # atno 4732 bound_to 414 
  -14.2113   16.0358   61.4073 LP  0  0  0  0  0  0  0  0  0  0  0  0  # atno 4733 bound_to 1114
  -12.7318   16.1966   62.0795 LP  0  0  0  0  0  0  0  0  0  0  0  0  # atno 4734 bound_to 1114
  -10.5123   14.9195   56.6898 LP  0  0  0  0  0  0  0  0  0  0  0  0  # atno 4763 bound_to 924 
  -12.0761   15.3898   56.7021 LP  0  0  0  0  0  0  0  0  0  0  0  0  # atno 4764 bound_to 924 
  -19.9724   13.3869   62.9871 LP  0  0  0  0  0  0  0  0  0  0  0  0  # atno 4771 bound_to 1244
  -21.0107   12.3909   63.7595 LP  0  0  0  0  0  0  0  0  0  0  0  0  # atno 4772 bound_to 1244
   -6.9278   23.9794   72.3749 LP  0  0  0  0  0  0  0  0  0  0  0  0  # atno 4775 bound_to 178 
   -6.1347   22.9566   71.3792 LP  0  0  0  0  0  0  0  0  0  0  0  0  # atno 4776 bound_to 178 
   -2.9709   24.9881   72.6287 LP  0  0  0  0  0  0  0  0  0  0  0  0  # atno 4779 bound_to 171 
   -1.7547   23.9310   72.3638 LP  0  0  0  0  0  0  0  0  0  0  0  0  # atno 4780 bound_to 171 
   -8.7400   26.2248   64.0205 LP  0  0  0  0  0  0  0  0  0  0  0  0  # atno 4783 bound_to 185 
   -7.9222   25.0536   63.2291 LP  0  0  0  0  0  0  0  0  0  0  0  0  # atno 4784 bound_to 185 
   -3.5444   17.2112   72.6514 LP  0  0  0  0  0  0  0  0  0  0  0  0  # atno 4785 bound_to 346 
   -1.9162   17.1408   72.7545 LP  0  0  0  0  0  0  0  0  0  0  0  0  # atno 4786 bound_to 346 
   -3.5613   20.6525   74.4995 LP  0  0  0  0  0  0  0  0  0  0  0  0  # atno 4787 bound_to 339 
   -2.6729   21.2134   75.7495 LP  0  0  0  0  0  0  0  0  0  0  0  0  # atno 4788 bound_to 339 
   -8.3976   29.6315   65.0527 LP  0  0  0  0  0  0  0  0  0  0  0  0  # atno 4797 bound_to 154 
   -7.7524   28.2064   65.5211 LP  0  0  0  0  0  0  0  0  0  0  0  0  # atno 4798 bound_to 154 

$$$$
