#       Name:                /Users/williammccorkindale/ml_physics/smi2wyck/notebooks/docking/mpro_fragments/prepared_Mpro-x0195.mol2
#       Creating user name   williammccorkindale
#       Creation time:       Tue Jun  7 14:55:36 2022


#       File generated by GOLD software.
#

@<TRIPOS>MOLECULE
/Users/williammccorkindale/ml_physics/smi2wyck/notebooks/docking/mpro_fragments/prepared_Mpro-x0195.mol2
    30    31     1
SMALL
NO_CHARGES


@<TRIPOS>ATOM
      1 C1          -1.3399  -2.4271   0.0585 C.3            1 RES1               0.0000
      2 N2          -1.4709  -1.0092   0.2119 N.pl3          1 RES1               0.0000
      3 C3          -2.7199  -0.4780   0.7534 C.3            1 RES1               0.0000
      4 C4          -2.7556   1.0297   0.6650 C.3            1 RES1               0.0000
      5 C5          -2.1225   1.5304  -0.6026 C.3            1 RES1               0.0000
      6 C6          -0.6855   1.1566  -0.5743 C.ar           1 RES1               0.0000
      7 C7           0.3279   1.9927  -0.9271 C.ar           1 RES1               0.0000
      8 C8           1.6267   1.5350  -0.8638 C.ar           1 RES1               0.0000
      9 C9           1.9186   0.2518  -0.4518 C.ar           1 RES1               0.0000
     10 C10          0.8920  -0.5889  -0.0966 C.ar           1 RES1               0.0000
     11 C11         -0.4002  -0.1377  -0.1581 C.ar           1 RES1               0.0000
     12 S12          3.5481  -0.3445  -0.3651 S.o2           1 RES1               0.0000
     13 O13          3.5798  -1.8054  -0.6652 O.2            1 RES1               0.0000
     14 O14          4.4055   0.3432  -1.4075 O.2            1 RES1               0.0000
     15 N15          4.2184  -0.0358   1.1932 N.3            1 RES1               0.0000
     16 H16         -2.2838  -2.8127  -0.3811 H              1 RES1               0.0000
     17 H17         -1.1913  -2.9447   1.0471 H              1 RES1               0.0000
     18 H18         -0.5242  -2.7278  -0.6230 H              1 RES1               0.0000
     19 H19         -2.8424  -0.7700   1.8154 H              1 RES1               0.0000
     20 H20         -3.6001  -0.8588   0.2010 H              1 RES1               0.0000
     21 H21         -3.7885   1.3876   0.7281 H              1 RES1               0.0000
     22 H22         -2.1963   1.4422   1.5238 H              1 RES1               0.0000
     23 H23         -2.2811   2.6221  -0.6689 H              1 RES1               0.0000
     24 H24         -2.5856   0.9830  -1.4501 H              1 RES1               0.0000
     25 H25          0.0708   2.9928  -1.2461 H              1 RES1               0.0000
     26 H26          2.4205   2.2052  -1.1452 H              1 RES1               0.0000
     27 H27          1.0571  -1.6112   0.2351 H              1 RES1               0.0000
     28 H28          5.1476  -0.4498   1.3045 H              1 RES1               0.0000
     29 H29          3.5747  -0.4707   1.8897 H              1 RES1               0.0000
     30 ****         4.3148   0.9516   1.3190 LP             1 RES1               0.0000
@<TRIPOS>BOND
    1    1    2 1     
    2    2    3 1     
    3    3    4 1     
    4    4    5 1     
    5    5    6 1     
    6    6    7 ar    
    7    7    8 ar    
    8    8    9 ar    
    9    9   10 ar    
   10   10   11 ar    
   11    9   12 1     
   12   12   13 2     
   13   12   14 2     
   14   12   15 1     
   15   11    2 1     
   16    6   11 ar    
   17    1   16 1     
   18    1   17 1     
   19    1   18 1     
   20    3   19 1     
   21    3   20 1     
   22    4   21 1     
   23    4   22 1     
   24    5   23 1     
   25    5   24 1     
   26    7   25 1     
   27    8   26 1     
   28   10   27 1     
   29   15   28 1     
   30   15   29 1     
   31   15   30 1     
@<TRIPOS>SUBSTRUCTURE
      1 RES1           1
@<TRIPOS>SET
LONE_PAIRS      STATIC     ATOMS    <user>   **** ""
3 13 14 30
DONOR_HYDROGENS      STATIC     ATOMS    <user>   **** ""
2 28 29
ATOM$BLUE        STATIC     ATOMS    COLORGROUP SYSTEM
3 13 14 30
ATOM$RED        STATIC     ATOMS    COLORGROUP SYSTEM
2 28 29
