#       Name:                unknown
#       Creating user name   williammccorkindale
#       Creation time:       Tue Jun  7 14:55:38 2022


#       File generated by GOLD software.
#

@<TRIPOS>MOLECULE
unknown|prepared_Mpro-x0874|mol2|1|dock3
    28    29     1
SMALL
NO_CHARGES


@<TRIPOS>ATOM
      1 O1         -12.2809  11.1696  68.3805 O.2            1 RES1               0.0000
      2 C2         -11.5736  12.1720  68.1919 C.2            1 RES1               0.0000
      3 C3         -12.1471  13.4678  67.9085 C.3            1 RES1               0.0000
      4 C4         -11.8530  14.1580  66.6555 C.3            1 RES1               0.0000
      5 C5         -11.7540  13.3358  65.4131 C.2            1 RES1               0.0000
      6 C6         -12.8961  12.8382  64.8248 C.2            1 RES1               0.0000
      7 S7         -12.3237  12.0036  63.4511 S.3            1 RES1               0.0000
      8 C8         -10.6578  12.2990  63.6464 C.2            1 RES1               0.0000
      9 C9         -10.5972  13.0494  64.7915 C.2            1 RES1               0.0000
     10 C10        -10.6212  14.9724  66.9315 C.3            1 RES1               0.0000
     11 C11        -11.0235  15.5961  68.2756 C.3            1 RES1               0.0000
     12 C12        -11.6222  14.4243  68.9943 C.3            1 RES1               0.0000
     13 N13        -10.1651  12.0188  68.2616 N.am           1 RES1               0.0000
     14 H14        -13.2824  13.4321  68.0311 H              1 RES1               0.0000
     15 H15        -12.6882  14.9191  66.5309 H              1 RES1               0.0000
     16 H16        -13.9388  12.9590  65.1727 H              1 RES1               0.0000
     17 H17         -9.8411  11.9544  62.9891 H              1 RES1               0.0000
     18 H18         -9.5801  13.3785  65.1228 H              1 RES1               0.0000
     19 H19        -10.4170  15.7477  66.1777 H              1 RES1               0.0000
     20 H20         -9.7104  14.3619  67.0317 H              1 RES1               0.0000
     21 H21        -10.1774  16.0569  68.7868 H              1 RES1               0.0000
     22 H22        -11.8474  16.3001  68.0436 H              1 RES1               0.0000
     23 H23        -10.8255  13.9628  69.6028 H              1 RES1               0.0000
     24 H24        -12.4385  14.7175  69.6853 H              1 RES1               0.0000
     25 H25         -9.7041  11.0957  68.4648 H              1 RES1               0.0000
     26 H26         -9.5135  12.8209  68.1134 H              1 RES1               0.0000
     27 ****       -13.2771  11.2455  68.3383 LP             1 RES1               0.0000
     28 ****       -11.8546  10.2861  68.5747 LP             1 RES1               0.0000
@<TRIPOS>BOND
    1    1    2 2     
    2    2    3 1     
    3    3    4 1     
    4    4    5 1     
    5    5    6 2     
    6    6    7 1     
    7    7    8 1     
    8    8    9 2     
    9    4   10 1     
   10   10   11 1     
   11   11   12 1     
   12    2   13 am    
   13   12    3 1     
   14    9    5 1     
   15    3   14 1     
   16    4   15 1     
   17    6   16 1     
   18    8   17 1     
   19    9   18 1     
   20   10   19 1     
   21   10   20 1     
   22   11   21 1     
   23   11   22 1     
   24   12   23 1     
   25   12   24 1     
   26   13   25 1     
   27   13   26 1     
   28    1   27 1     
   29    1   28 1     
@<TRIPOS>SUBSTRUCTURE
      1 RES1           1
@<TRIPOS>SET
LONE_PAIRS      STATIC     ATOMS    <user>   **** ""
2 27 28
DONOR_HYDROGENS      STATIC     ATOMS    <user>   **** ""
2 25 26
ATOM$BLUE        STATIC     ATOMS    COLORGROUP SYSTEM
2 27 28
ATOM$RED        STATIC     ATOMS    COLORGROUP SYSTEM
2 25 26
@<TRIPOS>COMMENT
> <Gold.Version>
2022.1.0

> <Gold.Id.Protein>
6LU7|6LU7_protein|mol2

> <Gold.Protein.RotatedTorsions>
[ 3973 1471 1470 1467 ] final   -4.57 input   60.00 | X-H torsion
[ 3372  414  413  411 ] final  -30.12 input   60.00 | X-H torsion
[ 4268 1114 1113 1110 ] final  164.98 input   59.99 | X-H torsion
[ 4409  924  923  921 ] final  -35.10 input   59.99 | X-H torsion
[ 4183 1244 1243 1241 ] final -145.45 input   59.99 | X-H torsion
[ 3800  178  177  174 ] final   10.54 input   60.00 | X-H torsion
[ 3793  171  170  167 ] final  179.62 input   60.00 | X-H torsion
[ 3576  185  184  181 ] final  111.12 input   60.00 | X-H torsion
[ 3523  346  345  342 ] final  120.72 input   60.01 | X-H torsion
[ 3515  339  338  335 ] final  -85.93 input   60.00 | X-H torsion
[ 3663  154  153  150 ] final   36.94 input   60.00 | X-H torsion
[ 4280 1130 1129 1126 ] final   -7.06 input   60.00 | X-H torsion

> <Gold.Protein.ActiveResidues>
 VAL20   THR21   CYS22   GLY23   THR24   THR25   THR26   LEU27   ASN28   PRO39  
 ARG40   HIS41   VAL42   CYS44   THR45   SER46   ASP48   MET49   LEU50   PRO52  
 TYR54   TYR118  ASN119  ILE136  GLY138  SER139  PHE140  LEU141  ASN142  GLY143 
 SER144  CYS145  GLY146  SER147  TYR161  HIS163  HIS164  MET165  GLU166  LEU167 
 PRO168  THR169  GLY170  VAL171  HIS172  ALA173  PHE181  PHE185  VAL186  ASP187 
 ARG188  GLN189  THR190  ALA191  GLN192  ALA193 

> <Gold.Protein.RotatedAtoms>
  -14.7167   18.2865   74.9829 H   0  0  0  0  0  0  0  0  0  0  0  0  # atno 3372 bound_to 414 
   -2.9756   20.5885   75.4363 H   0  0  0  0  0  0  0  0  0  0  0  0  # atno 3515 bound_to 339 
   -1.9881   18.1452   73.1129 H   0  0  0  0  0  0  0  0  0  0  0  0  # atno 3523 bound_to 346 
   -7.7610   26.8404   63.6861 H   0  0  0  0  0  0  0  0  0  0  0  0  # atno 3576 bound_to 185 
   -8.5752   29.1636   65.2000 H   0  0  0  0  0  0  0  0  0  0  0  0  # atno 3663 bound_to 154 
   -1.7984   23.8090   72.2746 H   0  0  0  0  0  0  0  0  0  0  0  0  # atno 3793 bound_to 171 
   -6.0646   23.4531   71.5729 H   0  0  0  0  0  0  0  0  0  0  0  0  # atno 3800 bound_to 178 
  -15.0353    8.2430   76.7954 H   0  0  0  0  0  0  0  0  0  0  0  0  # atno 3973 bound_to 1471
  -19.8693   13.8618   63.5881 H   0  0  0  0  0  0  0  0  0  0  0  0  # atno 4183 bound_to 1244
  -13.6321   15.2283   60.7758 H   0  0  0  0  0  0  0  0  0  0  0  0  # atno 4268 bound_to 1114
  -16.1286   20.4056   58.9788 H   0  0  0  0  0  0  0  0  0  0  0  0  # atno 4280 bound_to 1130
  -12.0975   15.3997   56.7610 H   0  0  0  0  0  0  0  0  0  0  0  0  # atno 4409 bound_to 924 
  -15.3117    8.9794   78.2200 LP  0  0  0  0  0  0  0  0  0  0  0  0  # atno 4696 bound_to 1471
  -15.6896    7.4027   78.0258 LP  0  0  0  0  0  0  0  0  0  0  0  0  # atno 4697 bound_to 1471
  -15.4392   17.0780   75.7988 LP  0  0  0  0  0  0  0  0  0  0  0  0  # atno 4731 bound_to 414 
  -13.9400   17.5696   76.2202 LP  0  0  0  0  0  0  0  0  0  0  0  0  # atno 4732 bound_to 414 
  -13.8808   16.3921   61.8855 LP  0  0  0  0  0  0  0  0  0  0  0  0  # atno 4733 bound_to 1114
  -12.3992   15.7275   61.7132 LP  0  0  0  0  0  0  0  0  0  0  0  0  # atno 4734 bound_to 1114
  -11.2164   15.1570   58.1074 LP  0  0  0  0  0  0  0  0  0  0  0  0  # atno 4763 bound_to 924 
  -10.5450   14.9284   56.6364 LP  0  0  0  0  0  0  0  0  0  0  0  0  # atno 4764 bound_to 924 
  -20.6455   12.5219   63.0879 LP  0  0  0  0  0  0  0  0  0  0  0  0  # atno 4771 bound_to 1244
  -20.8559   13.0700   64.6117 LP  0  0  0  0  0  0  0  0  0  0  0  0  # atno 4772 bound_to 1244
   -7.1895   22.2863   71.7189 LP  0  0  0  0  0  0  0  0  0  0  0  0  # atno 4775 bound_to 178 
   -7.3672   23.7002   72.5164 LP  0  0  0  0  0  0  0  0  0  0  0  0  # atno 4776 bound_to 178 
   -3.3455   23.7529   71.7735 LP  0  0  0  0  0  0  0  0  0  0  0  0  # atno 4779 bound_to 171 
   -2.8238   25.0046   72.6832 LP  0  0  0  0  0  0  0  0  0  0  0  0  # atno 4780 bound_to 171 
   -8.7966   25.5974   63.8609 LP  0  0  0  0  0  0  0  0  0  0  0  0  # atno 4783 bound_to 185 
   -7.3953   25.3885   63.0488 LP  0  0  0  0  0  0  0  0  0  0  0  0  # atno 4784 bound_to 185 
   -3.5944   17.9701   72.9207 LP  0  0  0  0  0  0  0  0  0  0  0  0  # atno 4785 bound_to 346 
   -2.5865   16.7379   72.5565 LP  0  0  0  0  0  0  0  0  0  0  0  0  # atno 4786 bound_to 346 
   -2.8267   22.1996   75.2626 LP  0  0  0  0  0  0  0  0  0  0  0  0  # atno 4787 bound_to 339 
   -3.6672   21.3313   74.1643 LP  0  0  0  0  0  0  0  0  0  0  0  0  # atno 4788 bound_to 339 
   -7.2359   28.2912   65.5058 LP  0  0  0  0  0  0  0  0  0  0  0  0  # atno 4797 bound_to 154 
   -7.1084   29.8433   65.0144 LP  0  0  0  0  0  0  0  0  0  0  0  0  # atno 4798 bound_to 154 

> <Gold.Score>
     Score     S(PLP)   S(hbond)     S(cho)   S(metal)  DE(clash)   DE(tors)     intcor
     34.31     -30.12       1.00       0.66       0.00       0.00       0.41       0.02

> <Gold.PLP.Fitness>
34.3084

> <Gold.PLP.PLP>
-30.1200

> <Gold.PLP.part.hbond>
-1.0000

> <Gold.PLP.part.metal>
0.0000

> <Gold.PLP.part.buried>
-4.4961

> <Gold.PLP.part.nonpolar>
-25.6734

> <Gold.PLP.part.repulsive>
0.0982

> <Gold.PLP.ligand.clash>
0.0000

> <Gold.PLP.ligand.torsion>
0.4115

> <Gold.PLP.Chemscore.Hbond>
1.0000

> <Gold.PLP.Chemscore.CHOScore>
0.6644

> <Gold.PLP.Chemscore.Metal>
0.0000

> <Gold.Chemscore.Hbonds>
donor molecule, donor type, donor heavy atom, donor atom, acceptor molecule, acceptor atom, score
      P1  H  1281  4132       L1     1  1.00
      L1  C     6    16       P1  1262  0.66

> <Gold.PLP.Chemscore.Internal.Correction>
0.0182

