#       Name:                unknown
#       Creating user name   williammccorkindale
#       Creation time:       Tue Jun  7 14:55:36 2022


#       File generated by GOLD software.
#

@<TRIPOS>MOLECULE
unknown|prepared_Mpro-x0305|mol2|1|dock1
    22    22     1
SMALL
NO_CHARGES


@<TRIPOS>ATOM
      1 C1         -12.7591  15.8509  73.4341 C.3            1 RES1               0.0000
      2 C2         -13.6532  15.1893  72.4195 C.3            1 RES1               0.0000
      3 N3         -12.9585  14.4475  71.4224 N.pl3          1 RES1               0.0000
      4 C4         -12.9002  13.0311  71.4185 C.ar           1 RES1               0.0000
      5 C5         -12.1798  12.3299  70.4799 C.ar           1 RES1               0.0000
      6 C6         -12.1053  10.9551  70.4517 C.ar           1 RES1               0.0000
      7 C7         -12.7834  10.2384  71.4084 C.ar           1 RES1               0.0000
      8 C8         -12.7602   8.8057  71.4529 C.1            1 RES1               0.0000
      9 N9         -12.7551   7.6420  71.4781 N.1            1 RES1               0.0000
     10 C10        -13.4997  10.9329  72.3419 C.ar           1 RES1               0.0000
     11 N11        -13.5569  12.2929  72.3472 N.ar           1 RES1               0.0000
     12 H12        -11.9131  15.2205  73.7569 H              1 RES1               0.0000
     13 H13        -12.3330  16.8064  73.0676 H              1 RES1               0.0000
     14 H14        -13.4192  16.1343  74.2996 H              1 RES1               0.0000
     15 H15        -14.2891  15.9670  71.9782 H              1 RES1               0.0000
     16 H16        -14.3008  14.4712  72.9957 H              1 RES1               0.0000
     17 H17        -12.4684  14.9547  70.6584 H              1 RES1               0.0000
     18 H18        -11.6319  12.8743  69.7087 H              1 RES1               0.0000
     19 H19        -11.5279  10.4416  69.6968 H              1 RES1               0.0000
     20 H20        -14.0557  10.4427  73.1209 H              1 RES1               0.0000
     21 ****       -12.7508   6.6423  71.4997 LP             1 RES1               0.0000
     22 ****       -14.0947  12.7574  73.0509 LP             1 RES1               0.0000
@<TRIPOS>BOND
    1    1    2 1     
    2    2    3 1     
    3    3    4 1     
    4    4    5 ar    
    5    5    6 ar    
    6    6    7 ar    
    7    7    8 1     
    8    8    9 3     
    9    7   10 ar    
   10   10   11 ar    
   11    4   11 ar    
   12    1   12 1     
   13    1   13 1     
   14    1   14 1     
   15    2   15 1     
   16    2   16 1     
   17    3   17 1     
   18    5   18 1     
   19    6   19 1     
   20   10   20 1     
   21    9   21 1     
   22   11   22 1     
@<TRIPOS>SUBSTRUCTURE
      1 RES1           1
@<TRIPOS>SET
LONE_PAIRS      STATIC     ATOMS    <user>   **** ""
2 21 22
DONOR_HYDROGENS      STATIC     ATOMS    <user>   **** ""
1 17
ATOM$BLUE        STATIC     ATOMS    COLORGROUP SYSTEM
2 21 22
ATOM$RED        STATIC     ATOMS    COLORGROUP SYSTEM
1 17
@<TRIPOS>COMMENT
> <Gold.Version>
2022.1.0

> <Gold.Id.Protein>
6LU7|6LU7_protein|mol2

> <Gold.Protein.RotatedTorsions>
[ 3973 1471 1470 1467 ] final  -70.80 input   60.00 | X-H torsion
[ 3372  414  413  411 ] final  -14.64 input   60.00 | X-H torsion
[ 4268 1114 1113 1110 ] final  104.04 input   59.99 | X-H torsion
[ 4409  924  923  921 ] final   22.98 input   59.99 | X-H torsion
[ 4183 1244 1243 1241 ] final   76.47 input   59.99 | X-H torsion
[ 3800  178  177  174 ] final  171.92 input   60.00 | X-H torsion
[ 3793  171  170  167 ] final   -2.98 input   60.00 | X-H torsion
[ 3576  185  184  181 ] final  149.91 input   60.00 | X-H torsion
[ 3523  346  345  342 ] final   64.45 input   60.01 | X-H torsion
[ 3515  339  338  335 ] final  -90.55 input   60.00 | X-H torsion
[ 3663  154  153  150 ] final  173.31 input   60.00 | X-H torsion
[ 4280 1130 1129 1126 ] final  151.43 input   60.00 | X-H torsion

> <Gold.Protein.ActiveResidues>
 VAL20   THR21   CYS22   GLY23   THR24   THR25   THR26   LEU27   ASN28   PRO39  
 ARG40   HIS41   VAL42   CYS44   THR45   SER46   ASP48   MET49   LEU50   PRO52  
 TYR54   TYR118  ASN119  ILE136  GLY138  SER139  PHE140  LEU141  ASN142  GLY143 
 SER144  CYS145  GLY146  SER147  TYR161  HIS163  HIS164  MET165  GLU166  LEU167 
 PRO168  THR169  GLY170  VAL171  HIS172  ALA173  PHE181  PHE185  VAL186  ASP187 
 ARG188  GLN189  THR190  ALA191  GLN192  ALA193 

> <Gold.Protein.RotatedAtoms>
  -14.4867   18.3385   75.0721 H   0  0  0  0  0  0  0  0  0  0  0  0  # atno 3372 bound_to 414 
   -2.9374   20.6311   75.4854 H   0  0  0  0  0  0  0  0  0  0  0  0  # atno 3515 bound_to 339 
   -2.7949   18.4984   73.1765 H   0  0  0  0  0  0  0  0  0  0  0  0  # atno 3523 bound_to 346 
   -7.3068   26.5676   63.3608 H   0  0  0  0  0  0  0  0  0  0  0  0  # atno 3576 bound_to 185 
   -6.9163   29.6680   65.0769 H   0  0  0  0  0  0  0  0  0  0  0  0  # atno 3663 bound_to 154 
   -3.4941   24.6005   72.2343 H   0  0  0  0  0  0  0  0  0  0  0  0  # atno 3793 bound_to 171 
   -7.6709   23.1174   72.4222 H   0  0  0  0  0  0  0  0  0  0  0  0  # atno 3800 bound_to 178 
  -15.0209    9.0493   77.4245 H   0  0  0  0  0  0  0  0  0  0  0  0  # atno 3973 bound_to 1471
  -20.8132   12.4171   63.3072 H   0  0  0  0  0  0  0  0  0  0  0  0  # atno 4183 bound_to 1244
  -14.2060   15.8464   61.2117 H   0  0  0  0  0  0  0  0  0  0  0  0  # atno 4268 bound_to 1114
  -15.6769   18.6228   58.9455 H   0  0  0  0  0  0  0  0  0  0  0  0  # atno 4280 bound_to 1130
  -11.3893   15.1773   56.2368 H   0  0  0  0  0  0  0  0  0  0  0  0  # atno 4409 bound_to 924 
  -15.6776    8.0749   78.5503 LP  0  0  0  0  0  0  0  0  0  0  0  0  # atno 4696 bound_to 1471
  -15.3381    7.4950   77.0619 LP  0  0  0  0  0  0  0  0  0  0  0  0  # atno 4697 bound_to 1471
  -15.5318   17.2095   75.6024 LP  0  0  0  0  0  0  0  0  0  0  0  0  # atno 4731 bound_to 414 
  -14.0790   17.3858   76.3268 LP  0  0  0  0  0  0  0  0  0  0  0  0  # atno 4732 bound_to 414 
  -12.9610   16.3324   62.1399 LP  0  0  0  0  0  0  0  0  0  0  0  0  # atno 4733 bound_to 1114
  -12.7410   15.1647   61.0198 LP  0  0  0  0  0  0  0  0  0  0  0  0  # atno 4734 bound_to 1114
  -12.0142   15.3899   57.7241 LP  0  0  0  0  0  0  0  0  0  0  0  0  # atno 4763 bound_to 924 
  -10.4604   14.9196   57.5477 LP  0  0  0  0  0  0  0  0  0  0  0  0  # atno 4764 bound_to 924 
  -20.6960   13.3148   64.6593 LP  0  0  0  0  0  0  0  0  0  0  0  0  # atno 4771 bound_to 1244
  -19.8549   13.7321   63.3232 LP  0  0  0  0  0  0  0  0  0  0  0  0  # atno 4772 bound_to 1244
   -6.3288   23.9173   71.9673 LP  0  0  0  0  0  0  0  0  0  0  0  0  # atno 4775 bound_to 178 
   -6.6103   22.4074   71.4127 LP  0  0  0  0  0  0  0  0  0  0  0  0  # atno 4776 bound_to 178 
   -1.9363   24.5903   72.7043 LP  0  0  0  0  0  0  0  0  0  0  0  0  # atno 4779 bound_to 171 
   -2.5252   23.3699   71.7929 LP  0  0  0  0  0  0  0  0  0  0  0  0  # atno 4780 bound_to 171 
   -8.7495   26.2016   64.0185 LP  0  0  0  0  0  0  0  0  0  0  0  0  # atno 4783 bound_to 185 
   -7.8999   25.0590   63.2188 LP  0  0  0  0  0  0  0  0  0  0  0  0  # atno 4784 bound_to 185 
   -3.4960   17.1361   72.6282 LP  0  0  0  0  0  0  0  0  0  0  0  0  # atno 4785 bound_to 346 
   -1.8725   17.2162   72.7851 LP  0  0  0  0  0  0  0  0  0  0  0  0  # atno 4786 bound_to 346 
   -2.8601   22.2317   75.2023 LP  0  0  0  0  0  0  0  0  0  0  0  0  # atno 4787 bound_to 339 
   -3.6723   21.2563   74.1750 LP  0  0  0  0  0  0  0  0  0  0  0  0  # atno 4788 bound_to 339 
   -8.5229   29.4132   65.1194 LP  0  0  0  0  0  0  0  0  0  0  0  0  # atno 4797 bound_to 154 
   -7.4921   28.2133   65.5248 LP  0  0  0  0  0  0  0  0  0  0  0  0  # atno 4798 bound_to 154 

> <Gold.Score>
     Score     S(PLP)   S(hbond)     S(cho)   S(metal)  DE(clash)   DE(tors)     intcor
     34.20     -31.39       0.00       1.00       0.00       0.00       0.10       0.00

> <Gold.PLP.Fitness>
34.1979

> <Gold.PLP.PLP>
-31.3946

> <Gold.PLP.part.hbond>
0.0000

> <Gold.PLP.part.metal>
0.0000

> <Gold.PLP.part.buried>
-3.3115

> <Gold.PLP.part.nonpolar>
-28.4807

> <Gold.PLP.part.repulsive>
0.3027

> <Gold.PLP.ligand.clash>
0.0000

> <Gold.PLP.ligand.torsion>
0.0984

> <Gold.PLP.Chemscore.Hbond>
0.0000

> <Gold.PLP.Chemscore.CHOScore>
1.0000

> <Gold.PLP.Chemscore.Metal>
0.0000

> <Gold.Chemscore.Hbonds>
donor molecule, donor type, donor heavy atom, donor atom, acceptor molecule, acceptor atom, score
      L1  C    10    20       P1  1449  1.00

> <Gold.PLP.Chemscore.Internal.Correction>
0.0002

