unknown|prepared_Mpro-x1249|sdf|1|dock5
  -GOLD-   5 72214353D 1   1.00000     0.00000

 33 34  0  0  0  0  0  0  0  0  1 V2000
  -12.9023   10.7898   70.7782 O   0  0  0  0  0  0  0  0  0  0  0  0
  -11.7348   10.9791   70.3086 C   0  0  0  0  0  0  0  0  0  0  0  0
  -11.4551   12.2625   69.8068 N   0  0  0  0  0  0  0  0  0  0  0  0
  -12.3979   13.3624   69.7833 C   0  0  0  0  0  0  0  0  0  0  0  0
  -12.3493   14.2116   70.9899 C   0  0  0  0  0  0  0  0  0  0  0  0
  -12.9789   13.7479   72.1502 C   0  0  0  0  0  0  0  0  0  0  0  0
  -12.9687   14.4961   73.3126 C   0  0  0  0  0  0  0  0  0  0  0  0
  -12.3242   15.7396   73.3543 C   0  0  0  0  0  0  0  0  0  0  0  0
  -12.3204   16.5021   74.5838 C   0  0  0  0  0  0  0  0  0  0  0  0
  -12.3039   17.0979   75.5732 N   0  0  0  0  0  0  0  0  0  0  0  0
  -11.7018   16.2033   72.2163 C   0  0  0  0  0  0  0  0  0  0  0  0
  -11.7257   15.4325   71.0561 C   0  0  0  0  0  0  0  0  0  0  0  0
  -10.8456    9.8757   70.3429 N   0  0  0  0  0  0  0  0  0  0  0  0
   -9.5756    9.9896   69.6555 C   0  0  0  0  0  0  0  0  0  0  0  0
   -9.1645    8.6651   69.0494 C   0  0  0  0  0  0  0  0  0  0  0  0
   -9.2497    7.6389   69.9934 O   0  0  0  0  0  0  0  0  0  0  0  0
  -10.6275    7.4696   70.2254 C   0  0  0  0  0  0  0  0  0  0  0  0
  -11.1155    8.6441   71.0204 C   0  0  0  0  0  0  0  0  0  0  0  0
  -10.4866   12.4191   69.4273 H   0  0  0  0  0  0  0  0  0  0  0  0
  -12.2477   14.0271   68.8837 H   0  0  0  0  0  0  0  0  0  0  0  0
  -13.4131   12.9628   69.6889 H   0  0  0  0  0  0  0  0  0  0  0  0
  -13.4725   12.7899   72.1019 H   0  0  0  0  0  0  0  0  0  0  0  0
  -13.4420   14.1656   74.2154 H   0  0  0  0  0  0  0  0  0  0  0  0
  -11.1945   17.1797   72.2367 H   0  0  0  0  0  0  0  0  0  0  0  0
  -11.2362   15.8183   70.1730 H   0  0  0  0  0  0  0  0  0  0  0  0
   -9.6427   10.7163   68.7963 H   0  0  0  0  0  0  0  0  0  0  0  0
   -8.8083   10.4259   70.3255 H   0  0  0  0  0  0  0  0  0  0  0  0
   -9.8687    8.4347   68.2323 H   0  0  0  0  0  0  0  0  0  0  0  0
   -8.1625    8.7653   68.6394 H   0  0  0  0  0  0  0  0  0  0  0  0
  -10.7553    6.5251   70.8318 H   0  0  0  0  0  0  0  0  0  0  0  0
  -11.1838    7.3622   69.2741 H   0  0  0  0  0  0  0  0  0  0  0  0
  -12.1828    8.4949   71.2720 H   0  0  0  0  0  0  0  0  0  0  0  0
  -10.5651    8.6517   71.9944 H   0  0  0  0  0  0  0  0  0  0  0  0
  1  2  2  0  0  0  0
  2  3  1  0  0  0  0
  3  4  1  0  0  0  0
  4  5  1  0  0  0  0
  5  6  2  0  0  0  0
  6  7  1  0  0  0  0
  7  8  2  0  0  0  0
  8  9  1  0  0  0  0
  9 10  3  0  0  0  0
  8 11  1  0  0  0  0
 11 12  2  0  0  0  0
  2 13  1  0  0  0  0
 13 14  1  0  0  0  0
 14 15  1  0  0  0  0
 15 16  1  0  0  0  0
 16 17  1  0  0  0  0
 17 18  1  0  0  0  0
  5 12  1  0  0  0  0
 18 13  1  0  0  0  0
  3 19  1  0  0  0  0
  4 20  1  0  0  0  0
  4 21  1  0  0  0  0
  6 22  1  0  0  0  0
  7 23  1  0  0  0  0
 11 24  1  0  0  0  0
 12 25  1  0  0  0  0
 14 26  1  0  0  0  0
 14 27  1  0  0  0  0
 15 28  1  0  0  0  0
 15 29  1  0  0  0  0
 17 30  1  0  0  0  0
 17 31  1  0  0  0  0
 18 32  1  0  0  0  0
 18 33  1  0  0  0  0
M  END
> <Gold.Version>
2022.1.0

> <Gold.Id.Protein>
6LU7|6LU7_protein|mol2

> <Gold.PLP.Fitness>
48.5575

> <Gold.PLP.PLP>
-46.6261

> <Gold.PLP.part.hbond>
-2.0000

> <Gold.PLP.part.metal>
0.0000

> <Gold.PLP.part.buried>
-6.6276

> <Gold.PLP.part.nonpolar>
-39.6679

> <Gold.PLP.part.repulsive>
0.2796

> <Gold.PLP.ligand.clash>
0.0000

> <Gold.PLP.ligand.torsion>
0.4745

> <Gold.PLP.Chemscore.Hbond>
0.9600

> <Gold.PLP.Chemscore.CHOScore>
0.0000

> <Gold.PLP.Chemscore.Metal>
0.0000

> <Gold.Chemscore.Hbonds>
donor molecule, donor type, donor heavy atom, donor atom, acceptor molecule, acceptor atom, score
      P1  H   414  3372       L1    10  0.96

> <Gold.PLP.Chemscore.Internal.Correction>
0.0004

> <Gold.Protein.RotatedTorsions>
[ 3973 1471 1470 1467 ] final -142.28 input   60.00 | X-H torsion
[ 3372  414  413  411 ] final   74.27 input   60.00 | X-H torsion
[ 4268 1114 1113 1110 ] final -102.08 input   59.99 | X-H torsion
[ 4409  924  923  921 ] final  -37.99 input   59.99 | X-H torsion
[ 4183 1244 1243 1241 ] final  100.45 input   59.99 | X-H torsion
[ 3800  178  177  174 ] final  -79.20 input   60.00 | X-H torsion
[ 3793  171  170  167 ] final -166.88 input   60.00 | X-H torsion
[ 3576  185  184  181 ] final  -52.38 input   60.00 | X-H torsion
[ 3523  346  345  342 ] final  129.70 input   60.01 | X-H torsion
[ 3515  339  338  335 ] final   46.89 input   60.00 | X-H torsion
[ 3663  154  153  150 ] final  168.51 input   60.00 | X-H torsion
[ 4280 1130 1129 1126 ] final   50.98 input   60.00 | X-H torsion

> <Gold.Protein.ActiveResidues>
 VAL20   THR21   CYS22   GLY23   THR24   THR25   THR26   LEU27   ASN28   PRO39  
 ARG40   HIS41   VAL42   CYS44   THR45   SER46   ASP48   MET49   LEU50   PRO52  
 TYR54   TYR118  ASN119  ILE136  GLY138  SER139  PHE140  LEU141  ASN142  GLY143 
 SER144  CYS145  GLY146  SER147  TYR161  HIS163  HIS164  MET165  GLU166  LEU167 
 PRO168  THR169  GLY170  VAL171  HIS172  ALA173  PHE181  PHE185  VAL186  ASP187 
 ARG188  GLN189  THR190  ALA191  GLN192  ALA193 

> <Gold.Protein.RotatedAtoms>
  -13.8625   17.7615   76.0706 H   0  0  0  0  0  0  0  0  0  0  0  0  # atno 3372 bound_to 414 
   -3.6344   21.5387   74.1683 H   0  0  0  0  0  0  0  0  0  0  0  0  # atno 3515 bound_to 339 
   -1.9069   18.0285   73.0773 H   0  0  0  0  0  0  0  0  0  0  0  0  # atno 3523 bound_to 346 
   -8.4241   25.1182   63.5197 H   0  0  0  0  0  0  0  0  0  0  0  0  # atno 3576 bound_to 185 
   -6.9682   29.7235   65.0581 H   0  0  0  0  0  0  0  0  0  0  0  0  # atno 3663 bound_to 154 
   -1.7522   23.9869   72.3954 H   0  0  0  0  0  0  0  0  0  0  0  0  # atno 3793 bound_to 171 
   -6.7671   22.3386   71.4752 H   0  0  0  0  0  0  0  0  0  0  0  0  # atno 3800 bound_to 178 
  -15.4255    8.7905   78.4071 H   0  0  0  0  0  0  0  0  0  0  0  0  # atno 3973 bound_to 1471
  -20.5864   12.5779   63.0351 H   0  0  0  0  0  0  0  0  0  0  0  0  # atno 4183 bound_to 1244
  -12.4394   15.4303   61.3917 H   0  0  0  0  0  0  0  0  0  0  0  0  # atno 4268 bound_to 1114
  -15.6923   19.9049   59.5985 H   0  0  0  0  0  0  0  0  0  0  0  0  # atno 4280 bound_to 1130
  -12.1159   15.4060   56.8041 H   0  0  0  0  0  0  0  0  0  0  0  0  # atno 4409 bound_to 924 
  -15.6247    7.3117   77.7579 LP  0  0  0  0  0  0  0  0  0  0  0  0  # atno 4696 bound_to 1471
  -14.9835    8.5190   76.8647 LP  0  0  0  0  0  0  0  0  0  0  0  0  # atno 4697 bound_to 1471
  -14.9482   18.1892   74.9365 LP  0  0  0  0  0  0  0  0  0  0  0  0  # atno 4731 bound_to 414 
  -15.2913   16.9871   75.9871 LP  0  0  0  0  0  0  0  0  0  0  0  0  # atno 4732 bound_to 414 
  -13.9880   15.4584   60.8927 LP  0  0  0  0  0  0  0  0  0  0  0  0  # atno 4733 bound_to 1114
  -13.4933   16.4578   62.0857 LP  0  0  0  0  0  0  0  0  0  0  0  0  # atno 4734 bound_to 1114
  -11.1710   15.1433   58.1026 LP  0  0  0  0  0  0  0  0  0  0  0  0  # atno 4763 bound_to 924 
  -10.5718   14.9357   56.5978 LP  0  0  0  0  0  0  0  0  0  0  0  0  # atno 4764 bound_to 924 
  -20.9002   12.9907   64.5775 LP  0  0  0  0  0  0  0  0  0  0  0  0  # atno 4771 bound_to 1244
  -19.8790   13.8943   63.6790 LP  0  0  0  0  0  0  0  0  0  0  0  0  # atno 4772 bound_to 1244
   -7.6289   23.2851   72.4800 LP  0  0  0  0  0  0  0  0  0  0  0  0  # atno 4775 bound_to 178 
   -6.2203   23.8239   71.8537 LP  0  0  0  0  0  0  0  0  0  0  0  0  # atno 4776 bound_to 178 
   -3.1875   23.6033   71.7317 LP  0  0  0  0  0  0  0  0  0  0  0  0  # atno 4779 bound_to 171 
   -3.0283   24.9749   72.6033 LP  0  0  0  0  0  0  0  0  0  0  0  0  # atno 4780 bound_to 171 
   -7.1453   26.0379   63.1116 LP  0  0  0  0  0  0  0  0  0  0  0  0  # atno 4783 bound_to 185 
   -8.3788   26.6824   63.9658 LP  0  0  0  0  0  0  0  0  0  0  0  0  # atno 4784 bound_to 185 
   -3.5294   18.0929   72.9701 LP  0  0  0  0  0  0  0  0  0  0  0  0  # atno 4785 bound_to 346 
   -2.7334   16.7325   72.5430 LP  0  0  0  0  0  0  0  0  0  0  0  0  # atno 4786 bound_to 346 
   -3.0847   20.4910   75.2856 LP  0  0  0  0  0  0  0  0  0  0  0  0  # atno 4787 bound_to 339 
   -2.7458   22.0830   75.4182 LP  0  0  0  0  0  0  0  0  0  0  0  0  # atno 4788 bound_to 339 
   -8.5479   29.3417   65.1416 LP  0  0  0  0  0  0  0  0  0  0  0  0  # atno 4797 bound_to 154 
   -7.4148   28.2289   65.5216 LP  0  0  0  0  0  0  0  0  0  0  0  0  # atno 4798 bound_to 154 

$$$$
