#       Name:                unknown
#       Creating user name   williammccorkindale
#       Creation time:       Tue Jun  7 14:55:42 2022


#       File generated by GOLD software.
#

@<TRIPOS>MOLECULE
unknown|prepared_Mpro-x0540|mol2|1|dock1
    42    43     1
SMALL
NO_CHARGES


@<TRIPOS>ATOM
      1 O1         -10.8241  13.8566  69.2136 O.2            1 RES1               0.0000
      2 C2         -11.5125  14.8953  69.1777 C.2            1 RES1               0.0000
      3 N3         -11.6068  15.5807  67.9328 N.am           1 RES1               0.0000
      4 C4         -10.9370  15.0943  66.7711 C.3            1 RES1               0.0000
      5 C5         -10.9556  16.0365  65.6033 C.3            1 RES1               0.0000
      6 C6         -10.2016  17.2685  66.0273 C.ar           1 RES1               0.0000
      7 C7          -8.8641  17.1731  66.3998 C.ar           1 RES1               0.0000
      8 C8          -8.1423  18.2806  66.7938 C.ar           1 RES1               0.0000
      9 N9          -8.7966  19.4568  66.7996 N.ar           1 RES1               0.0000
     10 C10        -10.0667  19.6121  66.4565 C.ar           1 RES1               0.0000
     11 C11        -10.7959  18.5095  66.0613 C.ar           1 RES1               0.0000
     12 N12        -12.1468  15.3186  70.3632 N.am           1 RES1               0.0000
     13 C13        -12.0209  14.5788  71.6247 C.3            1 RES1               0.0000
     14 C14        -12.6999  15.3894  72.6930 C.3            1 RES1               0.0000
     15 C15        -14.1610  15.6163  72.4034 C.3            1 RES1               0.0000
     16 C16        -14.8651  14.4117  71.8764 C.3            1 RES1               0.0000
     17 C17        -14.0385  13.1915  72.1811 C.3            1 RES1               0.0000
     18 C18        -12.6764  13.2366  71.5474 C.3            1 RES1               0.0000
     19 H19        -12.1895  16.4478  67.9305 H              1 RES1               0.0000
     20 H20        -11.4415  14.1599  66.4485 H              1 RES1               0.0000
     21 H21         -9.8734  14.8028  66.9715 H              1 RES1               0.0000
     22 H22        -10.4602  15.5684  64.7314 H              1 RES1               0.0000
     23 H23        -11.9732  16.4002  65.3494 H              1 RES1               0.0000
     24 H24         -8.3622  16.2056  66.3846 H              1 RES1               0.0000
     25 H25         -7.0935  18.1856  67.0825 H              1 RES1               0.0000
     26 H26        -10.5857  20.5710  66.4655 H              1 RES1               0.0000
     27 H27        -11.8449  18.5805  65.7685 H              1 RES1               0.0000
     28 H28        -12.7200  16.1809  70.3397 H              1 RES1               0.0000
     29 H29        -10.9524  14.4934  71.9008 H              1 RES1               0.0000
     30 H30        -12.2249  16.3774  72.8010 H              1 RES1               0.0000
     31 H31        -12.6479  14.8142  73.6461 H              1 RES1               0.0000
     32 H32        -14.3038  16.5294  71.7647 H              1 RES1               0.0000
     33 H33        -14.6329  15.8938  73.3880 H              1 RES1               0.0000
     34 H34        -15.8458  14.2708  72.3870 H              1 RES1               0.0000
     35 H35        -15.1180  14.4931  70.7860 H              1 RES1               0.0000
     36 H36        -13.9860  13.0823  73.2669 H              1 RES1               0.0000
     37 H37        -14.5706  12.3127  71.7443 H              1 RES1               0.0000
     38 H38        -12.6733  12.8681  70.4964 H              1 RES1               0.0000
     39 H39        -12.0173  12.5164  72.1138 H              1 RES1               0.0000
     40 ****       -10.3630  13.5336  68.3871 LP             1 RES1               0.0000
     41 ****       -10.7329  13.3465  70.0688 LP             1 RES1               0.0000
     42 ****        -8.2884  20.2703  67.0825 LP             1 RES1               0.0000
@<TRIPOS>BOND
    1    1    2 2     
    2    2    3 am    
    3    3    4 1     
    4    4    5 1     
    5    5    6 1     
    6    6    7 ar    
    7    7    8 ar    
    8    8    9 ar    
    9    9   10 ar    
   10   10   11 ar    
   11    2   12 am    
   12   12   13 1     
   13   13   14 1     
   14   14   15 1     
   15   15   16 1     
   16   16   17 1     
   17   17   18 1     
   18    6   11 ar    
   19   18   13 1     
   20    3   19 1     
   21    4   20 1     
   22    4   21 1     
   23    5   22 1     
   24    5   23 1     
   25    7   24 1     
   26    8   25 1     
   27   10   26 1     
   28   11   27 1     
   29   12   28 1     
   30   13   29 1     
   31   14   30 1     
   32   14   31 1     
   33   15   32 1     
   34   15   33 1     
   35   16   34 1     
   36   16   35 1     
   37   17   36 1     
   38   17   37 1     
   39   18   38 1     
   40   18   39 1     
   41    1   40 1     
   42    1   41 1     
   43    9   42 1     
@<TRIPOS>SUBSTRUCTURE
      1 RES1           1
@<TRIPOS>SET
LONE_PAIRS      STATIC     ATOMS    <user>   **** ""
3 40 41 42
DONOR_HYDROGENS      STATIC     ATOMS    <user>   **** ""
2 19 28
ATOM$BLUE        STATIC     ATOMS    COLORGROUP SYSTEM
3 40 41 42
ATOM$RED        STATIC     ATOMS    COLORGROUP SYSTEM
2 19 28
@<TRIPOS>COMMENT
> <Gold.Version>
2022.1.0

> <Gold.Id.Protein>
6LU7|6LU7_protein|mol2

> <Gold.Protein.RotatedTorsions>
[ 3973 1471 1470 1467 ] final -124.99 input   60.00 | X-H torsion
[ 3372  414  413  411 ] final  128.62 input   60.00 | X-H torsion
[ 4268 1114 1113 1110 ] final   12.22 input   59.99 | X-H torsion
[ 4409  924  923  921 ] final -140.12 input   59.99 | X-H torsion
[ 4183 1244 1243 1241 ] final   54.56 input   59.99 | X-H torsion
[ 3800  178  177  174 ] final -103.77 input   60.00 | X-H torsion
[ 3793  171  170  167 ] final -130.72 input   60.00 | X-H torsion
[ 3576  185  184  181 ] final -120.41 input   60.00 | X-H torsion
[ 3523  346  345  342 ] final   32.83 input   60.01 | X-H torsion
[ 3515  339  338  335 ] final  178.68 input   60.00 | X-H torsion
[ 3663  154  153  150 ] final   34.51 input   60.00 | X-H torsion
[ 4280 1130 1129 1126 ] final   77.54 input   60.00 | X-H torsion

> <Gold.Protein.ActiveResidues>
 VAL20   THR21   CYS22   GLY23   THR24   THR25   THR26   LEU27   ASN28   PRO39  
 ARG40   HIS41   VAL42   CYS44   THR45   SER46   ASP48   MET49   LEU50   PRO52  
 TYR54   TYR118  ASN119  ILE136  GLY138  SER139  PHE140  LEU141  ASN142  GLY143 
 SER144  CYS145  GLY146  SER147  TYR161  HIS163  HIS164  MET165  GLU166  LEU167 
 PRO168  THR169  GLY170  VAL171  HIS172  ALA173  PHE181  PHE185  VAL186  ASP187 
 ARG188  GLN189  THR190  ALA191  GLN192  ALA193 

> <Gold.Protein.RotatedAtoms>
  -14.3714   17.1538   76.3916 H   0  0  0  0  0  0  0  0  0  0  0  0  # atno 3372 bound_to 414 
   -2.6947   21.9406   75.5381 H   0  0  0  0  0  0  0  0  0  0  0  0  # atno 3515 bound_to 339 
   -3.2719   18.3437   73.0832 H   0  0  0  0  0  0  0  0  0  0  0  0  # atno 3523 bound_to 346 
   -7.4923   25.2923   63.0743 H   0  0  0  0  0  0  0  0  0  0  0  0  # atno 3576 bound_to 185 
   -8.5775   29.1256   65.2121 H   0  0  0  0  0  0  0  0  0  0  0  0  # atno 3663 bound_to 154 
   -1.8720   24.4898   72.6608 H   0  0  0  0  0  0  0  0  0  0  0  0  # atno 3793 bound_to 171 
   -7.1125   22.2835   71.6660 H   0  0  0  0  0  0  0  0  0  0  0  0  # atno 3800 bound_to 178 
  -15.3125    8.9698   78.2220 H   0  0  0  0  0  0  0  0  0  0  0  0  # atno 3973 bound_to 1471
  -20.9673   12.3810   63.6257 H   0  0  0  0  0  0  0  0  0  0  0  0  # atno 4183 bound_to 1244
  -13.4019   16.4495   62.1051 H   0  0  0  0  0  0  0  0  0  0  0  0  # atno 4268 bound_to 1114
  -15.5628   19.4974   59.6443 H   0  0  0  0  0  0  0  0  0  0  0  0  # atno 4280 bound_to 1130
  -11.4497   15.2291   58.0870 H   0  0  0  0  0  0  0  0  0  0  0  0  # atno 4409 bound_to 924 
  -15.6884    7.3996   78.0197 LP  0  0  0  0  0  0  0  0  0  0  0  0  # atno 4696 bound_to 1471
  -15.0336    8.2505   76.7893 LP  0  0  0  0  0  0  0  0  0  0  0  0  # atno 4697 bound_to 1471
  -14.1704   18.3254   75.2803 LP  0  0  0  0  0  0  0  0  0  0  0  0  # atno 4731 bound_to 414 
  -15.5565   17.4629   75.3201 LP  0  0  0  0  0  0  0  0  0  0  0  0  # atno 4732 bound_to 414 
  -12.4665   15.3706   61.3248 LP  0  0  0  0  0  0  0  0  0  0  0  0  # atno 4733 bound_to 1114
  -14.0453   15.5192   60.9352 LP  0  0  0  0  0  0  0  0  0  0  0  0  # atno 4734 bound_to 1114
  -10.4378   14.9002   56.8558 LP  0  0  0  0  0  0  0  0  0  0  0  0  # atno 4763 bound_to 924 
  -11.9760   15.3570   56.5526 LP  0  0  0  0  0  0  0  0  0  0  0  0  # atno 4764 bound_to 924 
  -20.4720   13.5877   64.5985 LP  0  0  0  0  0  0  0  0  0  0  0  0  # atno 4771 bound_to 1244
  -19.9236   13.4955   63.0632 LP  0  0  0  0  0  0  0  0  0  0  0  0  # atno 4772 bound_to 1244
   -7.4295   23.6307   72.5220 LP  0  0  0  0  0  0  0  0  0  0  0  0  # atno 4775 bound_to 178 
   -6.0720   23.5338   71.6195 LP  0  0  0  0  0  0  0  0  0  0  0  0  # atno 4776 bound_to 178 
   -2.6480   23.3783   71.7606 LP  0  0  0  0  0  0  0  0  0  0  0  0  # atno 4779 bound_to 171 
   -3.4472   24.6934   72.3071 LP  0  0  0  0  0  0  0  0  0  0  0  0  # atno 4780 bound_to 171 
   -7.6437   26.8197   63.6145 LP  0  0  0  0  0  0  0  0  0  0  0  0  # atno 4783 bound_to 185 
   -8.8187   25.7253   63.9115 LP  0  0  0  0  0  0  0  0  0  0  0  0  # atno 4784 bound_to 185 
   -3.1017   16.8176   72.5446 LP  0  0  0  0  0  0  0  0  0  0  0  0  # atno 4785 bound_to 346 
   -1.7864   17.6904   72.9626 LP  0  0  0  0  0  0  0  0  0  0  0  0  # atno 4786 bound_to 346 
   -3.5857   21.7237   74.1938 LP  0  0  0  0  0  0  0  0  0  0  0  0  # atno 4787 bound_to 339 
   -3.1911   20.4455   75.1304 LP  0  0  0  0  0  0  0  0  0  0  0  0  # atno 4788 bound_to 339 
   -7.2001   28.3087   65.5010 LP  0  0  0  0  0  0  0  0  0  0  0  0  # atno 4797 bound_to 154 
   -7.1419   29.8640   65.0070 LP  0  0  0  0  0  0  0  0  0  0  0  0  # atno 4798 bound_to 154 

> <Gold.Score>
     Score     S(PLP)   S(hbond)     S(cho)   S(metal)  DE(clash)   DE(tors)     intcor
     49.04     -49.12       0.00       0.00       0.00       0.00       0.08       0.08

> <Gold.PLP.Fitness>
49.0387

> <Gold.PLP.PLP>
-49.1177

> <Gold.PLP.part.hbond>
0.0000

> <Gold.PLP.part.metal>
0.0000

> <Gold.PLP.part.buried>
-8.1631

> <Gold.PLP.part.nonpolar>
-42.6773

> <Gold.PLP.part.repulsive>
0.2138

> <Gold.PLP.ligand.clash>
0.0000

> <Gold.PLP.ligand.torsion>
0.0813

> <Gold.PLP.Chemscore.Hbond>
0.0000

> <Gold.PLP.Chemscore.CHOScore>
0.0000

> <Gold.PLP.Chemscore.Metal>
0.0000

> <Gold.PLP.Chemscore.Internal.Correction>
0.0836

