#       Name:                unknown
#       Creating user name   williammccorkindale
#       Creation time:       Tue Jun  7 14:55:41 2022


#       File generated by GOLD software.
#

@<TRIPOS>MOLECULE
unknown|prepared_Mpro-x0967|mol2|1|dock4
    41    41     1
SMALL
NO_CHARGES


@<TRIPOS>ATOM
      1 C1         -12.6128  12.5972  65.0624 C.3            1 RES1               0.0000
      2 C2         -11.8766  12.7717  66.3531 C.2            1 RES1               0.0000
      3 O3         -11.0835  11.8830  66.7455 O.2            1 RES1               0.0000
      4 N4         -12.0687  13.9382  67.1736 N.am           1 RES1               0.0000
      5 C5         -11.2601  13.8973  68.4289 C.3            1 RES1               0.0000
      6 C6         -11.7460  15.2900  68.9704 C.3            1 RES1               0.0000
      7 C7         -12.1929  15.3271  70.2909 C.ar           1 RES1               0.0000
      8 C8         -13.1240  14.7034  71.0788 C.ar           1 RES1               0.0000
      9 C9         -13.4346  14.7300  72.2994 C.ar           1 RES1               0.0000
     10 C10        -12.6427  15.6597  73.2192 C.ar           1 RES1               0.0000
     11 C11        -11.7109  16.3192  72.4989 C.ar           1 RES1               0.0000
     12 C12        -11.4093  16.2800  71.2055 C.ar           1 RES1               0.0000
     13 O13        -12.9009  15.6002  74.5206 O.3            1 RES1               0.0000
     14 C14         -9.8331  13.9852  68.0104 C.2            1 RES1               0.0000
     15 O15         -9.2732  13.9708  66.9083 O.2            1 RES1               0.0000
     16 N16         -8.9254  14.0949  69.1531 N.am           1 RES1               0.0000
     17 C17         -7.7512  14.2022  68.9342 C.3            1 RES1               0.0000
     18 C18         -7.0780  15.4899  67.9241 C.1            1 RES1               0.0000
     19 C19         -6.4359  16.6840  66.9801 C.1            1 RES1               0.0000
     20 Br20        -5.7503  17.9980  65.9581 Br             1 RES1               0.0000
     21 H21        -13.6870  12.5754  65.2861 H              1 RES1               0.0000
     22 H22        -12.3901  13.4170  64.3534 H              1 RES1               0.0000
     23 H23        -12.3154  11.6064  64.6153 H              1 RES1               0.0000
     24 H24        -12.6746  14.6726  66.9788 H              1 RES1               0.0000
     25 H25        -11.4460  13.1099  69.1003 H              1 RES1               0.0000
     26 H26        -12.3250  15.7779  68.2219 H              1 RES1               0.0000
     27 H27        -10.7007  15.8763  68.8586 H              1 RES1               0.0000
     28 H28        -13.8845  14.1643  70.4317 H              1 RES1               0.0000
     29 H29        -14.1643  14.2028  72.9191 H              1 RES1               0.0000
     30 H30        -11.1065  17.0706  73.1248 H              1 RES1               0.0000
     31 H31        -10.6796  16.8170  70.6260 H              1 RES1               0.0000
     32 H32        -13.5387  15.0307  75.0061 H              1 RES1               0.0000
     33 H33         -9.3025  14.1454  70.1109 H              1 RES1               0.0000
     34 H34         -6.8901  14.5968  69.7058 H              1 RES1               0.0000
     35 H35         -6.9523  13.4926  68.3573 H              1 RES1               0.0000
     36 ****       -10.9440  11.0593  66.1959 LP             1 RES1               0.0000
     37 ****       -10.5907  11.9980  67.6079 LP             1 RES1               0.0000
     38 ****       -13.1705  16.5326  74.7612 LP             1 RES1               0.0000
     39 ****       -12.0165  15.3908  74.9379 LP             1 RES1               0.0000
     40 ****        -9.8160  13.8855  66.0728 LP             1 RES1               0.0000
     41 ****        -8.2775  14.0444  66.8523 LP             1 RES1               0.0000
@<TRIPOS>BOND
    1    1    2 1     
    2    2    3 2     
    3    2    4 am    
    4    4    5 1     
    5    5    6 1     
    6    6    7 1     
    7    7    8 ar    
    8    8    9 ar    
    9    9   10 ar    
   10   10   11 ar    
   11   11   12 ar    
   12   10   13 1     
   13    5   14 1     
   14   14   15 2     
   15   14   16 am    
   16   16   17 1     
   17   17   18 1     
   18   18   19 3     
   19   19   20 1     
   20   12    7 ar    
   21    1   21 1     
   22    1   22 1     
   23    1   23 1     
   24    4   24 1     
   25    5   25 1     
   26    6   26 1     
   27    6   27 1     
   28    8   28 1     
   29    9   29 1     
   30   11   30 1     
   31   12   31 1     
   32   13   32 1     
   33   16   33 1     
   34   17   34 1     
   35   17   35 1     
   36    3   36 1     
   37    3   37 1     
   38   13   38 1     
   39   13   39 1     
   40   15   40 1     
   41   15   41 1     
@<TRIPOS>SUBSTRUCTURE
      1 RES1           1
@<TRIPOS>SET
LONE_PAIRS      STATIC     ATOMS    <user>   **** ""
6 36 37 38 39 40 41
DONOR_HYDROGENS      STATIC     ATOMS    <user>   **** ""
3 24 32 33
ATOM$BLUE        STATIC     ATOMS    COLORGROUP SYSTEM
6 36 37 38 39 40 41
ATOM$RED        STATIC     ATOMS    COLORGROUP SYSTEM
3 24 32 33
@<TRIPOS>COMMENT
> <Gold.Version>
2022.1.0

> <Gold.Id.Protein>
6LU7|6LU7_protein|mol2

> <Gold.Protein.RotatedTorsions>
[ 3973 1471 1470 1467 ] final   52.52 input   60.00 | X-H torsion
[ 3372  414  413  411 ] final  -19.36 input   60.00 | X-H torsion
[ 4268 1114 1113 1110 ] final  -65.72 input   59.99 | X-H torsion
[ 4409  924  923  921 ] final -157.45 input   59.99 | X-H torsion
[ 4183 1244 1243 1241 ] final  -88.72 input   59.99 | X-H torsion
[ 3800  178  177  174 ] final -177.50 input   60.00 | X-H torsion
[ 3793  171  170  167 ] final  -91.40 input   60.00 | X-H torsion
[ 3576  185  184  181 ] final   25.52 input   60.00 | X-H torsion
[ 3523  346  345  342 ] final  137.99 input   60.01 | X-H torsion
[ 3515  339  338  335 ] final -151.70 input   60.00 | X-H torsion
[ 3663  154  153  150 ] final   83.00 input   60.00 | X-H torsion
[ 4280 1130 1129 1126 ] final   -0.27 input   60.00 | X-H torsion

> <Gold.Protein.ActiveResidues>
 VAL20   THR21   CYS22   GLY23   THR24   THR25   THR26   LEU27   ASN28   PRO39  
 ARG40   HIS41   VAL42   CYS44   THR45   SER46   ASP48   MET49   LEU50   PRO52  
 TYR54   TYR118  ASN119  ILE136  GLY138  SER139  PHE140  LEU141  ASN142  GLY143 
 SER144  CYS145  GLY146  SER147  TYR161  HIS163  HIS164  MET165  GLU166  LEU167 
 PRO168  THR169  GLY170  VAL171  HIS172  ALA173  PHE181  PHE185  VAL186  ASP187 
 ARG188  GLN189  THR190  ALA191  GLN192  ALA193 

> <Gold.Protein.RotatedAtoms>
  -14.5559   18.3278   75.0400 H   0  0  0  0  0  0  0  0  0  0  0  0  # atno 3372 bound_to 414 
   -2.6434   21.5040   75.7275 H   0  0  0  0  0  0  0  0  0  0  0  0  # atno 3515 bound_to 339 
   -1.8496   17.9117   73.0398 H   0  0  0  0  0  0  0  0  0  0  0  0  # atno 3523 bound_to 346 
   -8.7669   26.1321   64.0096 H   0  0  0  0  0  0  0  0  0  0  0  0  # atno 3576 bound_to 185 
   -8.2370   29.7848   65.0099 H   0  0  0  0  0  0  0  0  0  0  0  0  # atno 3663 bound_to 154 
   -2.3391   24.8993   72.7646 H   0  0  0  0  0  0  0  0  0  0  0  0  # atno 3793 bound_to 171 
   -7.6870   22.9590   72.3556 H   0  0  0  0  0  0  0  0  0  0  0  0  # atno 3800 bound_to 178 
  -15.3579    7.4681   77.1054 H   0  0  0  0  0  0  0  0  0  0  0  0  # atno 3973 bound_to 1471
  -20.2354   13.8049   64.3968 H   0  0  0  0  0  0  0  0  0  0  0  0  # atno 4183 bound_to 1244
  -12.4396   15.8385   61.8096 H   0  0  0  0  0  0  0  0  0  0  0  0  # atno 4268 bound_to 1114
  -16.0768   20.3890   59.0752 H   0  0  0  0  0  0  0  0  0  0  0  0  # atno 4280 bound_to 1130
  -11.1796   15.1481   58.0970 H   0  0  0  0  0  0  0  0  0  0  0  0  # atno 4409 bound_to 924 
  -15.0099    9.0351   77.3727 LP  0  0  0  0  0  0  0  0  0  0  0  0  # atno 4696 bound_to 1471
  -15.6664    8.1274   78.5608 LP  0  0  0  0  0  0  0  0  0  0  0  0  # atno 4697 bound_to 1471
  -15.5098   17.1656   75.6624 LP  0  0  0  0  0  0  0  0  0  0  0  0  # atno 4731 bound_to 414 
  -14.0313   17.4404   76.2991 LP  0  0  0  0  0  0  0  0  0  0  0  0  # atno 4732 bound_to 414 
  -13.4924   15.1681   60.7655 LP  0  0  0  0  0  0  0  0  0  0  0  0  # atno 4733 bound_to 1114
  -13.9885   16.3370   61.7921 LP  0  0  0  0  0  0  0  0  0  0  0  0  # atno 4734 bound_to 1114
  -10.5667   14.9343   56.6049 LP  0  0  0  0  0  0  0  0  0  0  0  0  # atno 4763 bound_to 924 
  -12.1191   15.4044   56.7934 LP  0  0  0  0  0  0  0  0  0  0  0  0  # atno 4764 bound_to 924 
  -20.0803   13.1906   62.8980 LP  0  0  0  0  0  0  0  0  0  0  0  0  # atno 4771 bound_to 1244
  -21.0524   12.4587   63.9870 LP  0  0  0  0  0  0  0  0  0  0  0  0  # atno 4772 bound_to 1244
   -6.4509   23.9793   72.0743 LP  0  0  0  0  0  0  0  0  0  0  0  0  # atno 4775 bound_to 178 
   -6.4720   22.5049   71.3728 LP  0  0  0  0  0  0  0  0  0  0  0  0  # atno 4776 bound_to 178 
   -2.0713   23.4873   72.0013 LP  0  0  0  0  0  0  0  0  0  0  0  0  # atno 4779 bound_to 171 
   -3.5534   24.1720   71.9618 LP  0  0  0  0  0  0  0  0  0  0  0  0  # atno 4780 bound_to 171 
   -7.8363   25.0780   63.1906 LP  0  0  0  0  0  0  0  0  0  0  0  0  # atno 4783 bound_to 185 
   -7.3425   26.6212   63.3934 LP  0  0  0  0  0  0  0  0  0  0  0  0  # atno 4784 bound_to 185 
   -3.4516   18.1962   73.0134 LP  0  0  0  0  0  0  0  0  0  0  0  0  # atno 4785 bound_to 346 
   -2.8688   16.7469   72.5375 LP  0  0  0  0  0  0  0  0  0  0  0  0  # atno 4786 bound_to 346 
   -3.3863   22.1054   74.4105 LP  0  0  0  0  0  0  0  0  0  0  0  0  # atno 4787 bound_to 339 
   -3.4422   20.5035   74.7230 LP  0  0  0  0  0  0  0  0  0  0  0  0  # atno 4788 bound_to 339 
   -7.9726   28.2558   65.5004 LP  0  0  0  0  0  0  0  0  0  0  0  0  # atno 4797 bound_to 154 
   -6.7123   29.2531   65.2113 LP  0  0  0  0  0  0  0  0  0  0  0  0  # atno 4798 bound_to 154 

> <Gold.Score>
     Score     S(PLP)   S(hbond)     S(cho)   S(metal)  DE(clash)   DE(tors)     intcor
     48.50     -47.61       0.69       0.00       0.00       0.00       0.92       0.65

> <Gold.PLP.Fitness>
48.5010

> <Gold.PLP.PLP>
-47.6055

> <Gold.PLP.part.hbond>
-2.4290

> <Gold.PLP.part.metal>
0.0000

> <Gold.PLP.part.buried>
-7.8514

> <Gold.PLP.part.nonpolar>
-37.8687

> <Gold.PLP.part.repulsive>
0.1655

> <Gold.PLP.ligand.clash>
0.0000

> <Gold.PLP.ligand.torsion>
0.9184

> <Gold.PLP.Chemscore.Hbond>
0.6932

> <Gold.PLP.Chemscore.CHOScore>
0.0000

> <Gold.PLP.Chemscore.Metal>
0.0000

> <Gold.Chemscore.Hbonds>
donor molecule, donor type, donor heavy atom, donor atom, acceptor molecule, acceptor atom, score
      L1  H    13    32       P1  1441  0.15
      L1  H    16    33       P1  1464  0.54

> <Gold.PLP.Chemscore.Internal.Correction>
0.6530

