#       Name:                unknown
#       Creating user name   williammccorkindale
#       Creation time:       Tue Jun  7 14:55:40 2022


#       File generated by GOLD software.
#

@<TRIPOS>MOLECULE
unknown|prepared_Mpro-x1093|mol2|1|dock4
    41    43     1
SMALL
NO_CHARGES


@<TRIPOS>ATOM
      1 C1         -11.8268  11.4855  68.2016 C.3            1 RES1               0.0000
      2 N2         -11.1302  12.6530  67.7732 N.3            1 RES1               0.0000
      3 C3         -11.6352  13.2790  66.5924 C.3            1 RES1               0.0000
      4 C4         -10.6544  14.3586  66.1848 C.3            1 RES1               0.0000
      5 N5         -10.5432  15.3305  67.2469 N.am           1 RES1               0.0000
      6 C6         -11.0225  14.9884  68.5659 C.3            1 RES1               0.0000
      7 C7         -10.7201  13.5319  68.8184 C.3            1 RES1               0.0000
      8 C8          -9.9657  16.5895  66.9540 C.2            1 RES1               0.0000
      9 O9          -9.5770  16.8074  65.7827 O.2            1 RES1               0.0000
     10 C10         -9.8171  17.6256  67.9775 C.3            1 RES1               0.0000
     11 C11         -9.2788  18.8930  67.4393 C.2            1 RES1               0.0000
     12 C12         -9.8555  19.6604  66.4533 C.2            1 RES1               0.0000
     13 N13         -9.0540  20.7132  66.2624 N.pl3          1 RES1               0.0000
     14 C14         -7.9999  20.6443  67.0825 C.ar           1 RES1               0.0000
     15 N15         -6.9110  21.4227  67.3034 N.ar           1 RES1               0.0000
     16 C16         -5.9590  21.1532  68.1964 C.ar           1 RES1               0.0000
     17 C17         -6.0661  20.0099  68.9607 C.ar           1 RES1               0.0000
     18 C18         -7.1449  19.1609  68.7993 C.ar           1 RES1               0.0000
     19 C19         -8.0987  19.4934  67.8586 C.ar           1 RES1               0.0000
     20 H20        -11.9964  10.7768  67.3689 H              1 RES1               0.0000
     21 H21        -11.1945  11.0178  69.0109 H              1 RES1               0.0000
     22 H22        -12.7900  11.7319  68.6945 H              1 RES1               0.0000
     23 H23        -11.6555  12.4817  65.7961 H              1 RES1               0.0000
     24 H24        -12.6666  13.6961  66.7085 H              1 RES1               0.0000
     25 H25        -10.9223  14.8142  65.2107 H              1 RES1               0.0000
     26 H26         -9.6526  13.8470  66.1319 H              1 RES1               0.0000
     27 H27        -10.4503  15.5599  69.3545 H              1 RES1               0.0000
     28 H28        -12.1003  15.1822  68.6937 H              1 RES1               0.0000
     29 H29         -9.5924  13.4622  68.8792 H              1 RES1               0.0000
     30 H30        -11.0739  13.2206  69.8269 H              1 RES1               0.0000
     31 H31         -9.1453  17.2312  68.7753 H              1 RES1               0.0000
     32 H32        -10.8029  17.8376  68.4531 H              1 RES1               0.0000
     33 H33        -10.7985  19.4418  65.9264 H              1 RES1               0.0000
     34 H34         -9.2289  21.4684  65.5773 H              1 RES1               0.0000
     35 H35         -5.0929  21.7798  68.3639 H              1 RES1               0.0000
     36 H36         -5.3188  19.7522  69.6962 H              1 RES1               0.0000
     37 H37         -7.3008  18.2553  69.3527 H              1 RES1               0.0000
     38 ****       -10.2597  12.2834  67.4482 LP             1 RES1               0.0000
     39 ****        -9.6784  16.1005  65.0826 LP             1 RES1               0.0000
     40 ****        -9.1654  17.6880  65.5481 LP             1 RES1               0.0000
     41 ****        -6.8161  22.2560  66.7587 LP             1 RES1               0.0000
@<TRIPOS>BOND
    1    1    2 1     
    2    2    3 1     
    3    3    4 1     
    4    4    5 1     
    5    5    6 1     
    6    6    7 1     
    7    5    8 am    
    8    8    9 2     
    9    8   10 1     
   10   10   11 1     
   11   11   12 2     
   12   12   13 1     
   13   13   14 1     
   14   14   15 ar    
   15   15   16 ar    
   16   16   17 ar    
   17   17   18 ar    
   18   18   19 ar    
   19    7    2 1     
   20   19   11 1     
   21   19   14 ar    
   22    1   20 1     
   23    1   21 1     
   24    1   22 1     
   25    3   23 1     
   26    3   24 1     
   27    4   25 1     
   28    4   26 1     
   29    6   27 1     
   30    6   28 1     
   31    7   29 1     
   32    7   30 1     
   33   10   31 1     
   34   10   32 1     
   35   12   33 1     
   36   13   34 1     
   37   16   35 1     
   38   17   36 1     
   39   18   37 1     
   40    2   38 1     
   41    9   39 1     
   42    9   40 1     
   43   15   41 1     
@<TRIPOS>SUBSTRUCTURE
      1 RES1           1
@<TRIPOS>SET
LONE_PAIRS      STATIC     ATOMS    <user>   **** ""
4 38 39 40 41
DONOR_HYDROGENS      STATIC     ATOMS    <user>   **** ""
1 34
ATOM$BLUE        STATIC     ATOMS    COLORGROUP SYSTEM
4 38 39 40 41
ATOM$RED        STATIC     ATOMS    COLORGROUP SYSTEM
1 34
@<TRIPOS>COMMENT
> <Gold.Version>
2022.1.0

> <Gold.Id.Protein>
6LU7|6LU7_protein|mol2

> <Gold.Protein.RotatedTorsions>
[ 3973 1471 1470 1467 ] final  -50.20 input   60.00 | X-H torsion
[ 3372  414  413  411 ] final -160.26 input   60.00 | X-H torsion
[ 4268 1114 1113 1110 ] final  104.89 input   59.99 | X-H torsion
[ 4409  924  923  921 ] final  -15.48 input   59.99 | X-H torsion
[ 4183 1244 1243 1241 ] final   83.10 input   59.99 | X-H torsion
[ 3800  178  177  174 ] final  -39.35 input   60.00 | X-H torsion
[ 3793  171  170  167 ] final  -21.80 input   60.00 | X-H torsion
[ 3576  185  184  181 ] final    9.93 input   60.00 | X-H torsion
[ 3523  346  345  342 ] final   79.34 input   60.01 | X-H torsion
[ 3515  339  338  335 ] final    1.37 input   60.00 | X-H torsion
[ 3663  154  153  150 ] final  -45.41 input   60.00 | X-H torsion
[ 4280 1130 1129 1126 ] final   98.46 input   60.00 | X-H torsion

> <Gold.Protein.ActiveResidues>
 VAL20   THR21   CYS22   GLY23   THR24   THR25   THR26   LEU27   ASN28   PRO39  
 ARG40   HIS41   VAL42   CYS44   THR45   SER46   ASP48   MET49   LEU50   PRO52  
 TYR54   TYR118  ASN119  ILE136  GLY138  SER139  PHE140  LEU141  ASN142  GLY143 
 SER144  CYS145  GLY146  SER147  TYR161  HIS163  HIS164  MET165  GLU166  LEU167 
 PRO168  THR169  GLY170  VAL171  HIS172  ALA173  PHE181  PHE185  VAL186  ASP187 
 ARG188  GLN189  THR190  ALA191  GLN192  ALA193 

> <Gold.Protein.RotatedAtoms>
  -15.3451   17.0197   75.9228 H   0  0  0  0  0  0  0  0  0  0  0  0  # atno 3372 bound_to 414 
   -3.6302   20.8374   74.3500 H   0  0  0  0  0  0  0  0  0  0  0  0  # atno 3515 bound_to 339 
   -2.5532   18.4806   73.1892 H   0  0  0  0  0  0  0  0  0  0  0  0  # atno 3523 bound_to 346 
   -8.8142   25.8873   63.9608 H   0  0  0  0  0  0  0  0  0  0  0  0  # atno 3576 bound_to 185 
   -7.8388   28.2265   65.5151 H   0  0  0  0  0  0  0  0  0  0  0  0  # atno 3663 bound_to 154 
   -3.3403   24.8041   72.4033 H   0  0  0  0  0  0  0  0  0  0  0  0  # atno 3793 bound_to 171 
   -6.2741   22.7245   71.3516 H   0  0  0  0  0  0  0  0  0  0  0  0  # atno 3800 bound_to 178 
  -14.9730    8.8786   77.1406 H   0  0  0  0  0  0  0  0  0  0  0  0  # atno 3973 bound_to 1471
  -20.7551   12.4496   63.2218 H   0  0  0  0  0  0  0  0  0  0  0  0  # atno 4183 bound_to 1244
  -14.2041   15.8364   61.2022 H   0  0  0  0  0  0  0  0  0  0  0  0  # atno 4268 bound_to 1114
  -15.5214   19.1721   59.5547 H   0  0  0  0  0  0  0  0  0  0  0  0  # atno 4280 bound_to 1130
  -11.9213   15.3420   56.5015 H   0  0  0  0  0  0  0  0  0  0  0  0  # atno 4409 bound_to 924 
  -15.5919    8.4005   78.5676 LP  0  0  0  0  0  0  0  0  0  0  0  0  # atno 4696 bound_to 1471
  -15.4720    7.3414   77.3305 LP  0  0  0  0  0  0  0  0  0  0  0  0  # atno 4697 bound_to 1471
  -13.8784   17.6940   76.1280 LP  0  0  0  0  0  0  0  0  0  0  0  0  # atno 4731 bound_to 414 
  -14.8680   18.2294   74.9445 LP  0  0  0  0  0  0  0  0  0  0  0  0  # atno 4732 bound_to 414 
  -12.9737   16.3382   62.1415 LP  0  0  0  0  0  0  0  0  0  0  0  0  # atno 4733 bound_to 1114
  -12.7303   15.1690   61.0278 LP  0  0  0  0  0  0  0  0  0  0  0  0  # atno 4734 bound_to 1114
  -11.5227   15.2485   58.0764 LP  0  0  0  0  0  0  0  0  0  0  0  0  # atno 4763 bound_to 924 
  -10.4161   14.8950   56.9288 LP  0  0  0  0  0  0  0  0  0  0  0  0  # atno 4764 bound_to 924 
  -20.7583   13.2257   64.6520 LP  0  0  0  0  0  0  0  0  0  0  0  0  # atno 4771 bound_to 1244
  -19.8510   13.7885   63.4164 LP  0  0  0  0  0  0  0  0  0  0  0  0  # atno 4772 bound_to 1244
   -7.6546   22.7011   72.2131 LP  0  0  0  0  0  0  0  0  0  0  0  0  # atno 4775 bound_to 178 
   -6.6911   24.0192   72.2450 LP  0  0  0  0  0  0  0  0  0  0  0  0  # atno 4776 bound_to 178 
   -1.7930   24.3393   72.5972 LP  0  0  0  0  0  0  0  0  0  0  0  0  # atno 4779 bound_to 171 
   -2.8234   23.4159   71.7299 LP  0  0  0  0  0  0  0  0  0  0  0  0  # atno 4780 bound_to 171 
   -7.6196   25.1855   63.1073 LP  0  0  0  0  0  0  0  0  0  0  0  0  # atno 4783 bound_to 185 
   -7.5116   26.7602   63.5258 LP  0  0  0  0  0  0  0  0  0  0  0  0  # atno 4784 bound_to 185 
   -3.6068   17.3436   72.6941 LP  0  0  0  0  0  0  0  0  0  0  0  0  # atno 4785 bound_to 346 
   -2.0050   17.0266   72.7063 LP  0  0  0  0  0  0  0  0  0  0  0  0  # atno 4786 bound_to 346 
   -2.7392   20.9785   75.7044 LP  0  0  0  0  0  0  0  0  0  0  0  0  # atno 4787 bound_to 339 
   -3.0955   22.3018   74.8164 LP  0  0  0  0  0  0  0  0  0  0  0  0  # atno 4788 bound_to 339 
   -6.7449   29.3808   65.1699 LP  0  0  0  0  0  0  0  0  0  0  0  0  # atno 4797 bound_to 154 
   -8.3410   29.6974   65.0330 LP  0  0  0  0  0  0  0  0  0  0  0  0  # atno 4798 bound_to 154 

> <Gold.Score>
     Score     S(PLP)   S(hbond)     S(cho)   S(metal)  DE(clash)   DE(tors)     intcor
     42.79     -32.01       2.74       0.86       0.00       0.00       0.02       0.00

> <Gold.PLP.Fitness>
42.7858

> <Gold.PLP.PLP>
-32.0110

> <Gold.PLP.part.hbond>
-2.4265

> <Gold.PLP.part.metal>
0.0000

> <Gold.PLP.part.buried>
-4.4209

> <Gold.PLP.part.nonpolar>
-26.4687

> <Gold.PLP.part.repulsive>
0.3554

> <Gold.PLP.ligand.clash>
0.0000

> <Gold.PLP.ligand.torsion>
0.0160

> <Gold.PLP.Chemscore.Hbond>
2.7394

> <Gold.PLP.Chemscore.CHOScore>
0.8628

> <Gold.PLP.Chemscore.Metal>
0.0000

> <Gold.Chemscore.Hbonds>
donor molecule, donor type, donor heavy atom, donor atom, acceptor molecule, acceptor atom, score
      L1  H    13    34       P1   183  0.83
      P1  H  1105  4261       L1     9  0.91
      P1  H   180  3804       L1    15  1.00
      L1  C    16    35       P1   169  0.86

> <Gold.PLP.Chemscore.Internal.Correction>
0.0002

