unknown|prepared_Mpro-x0161|sdf|1|dock5
  -GOLD-   5 72214353D 1   1.00000     0.00000

 23 23  0  0  0  0  0  0  0  0  1 V2000
  -12.4828   16.7541   74.6562 C   0  0  0  0  0  0  0  0  0  0  0  0
  -12.2452   16.1651   73.3978 O   0  0  0  0  0  0  0  0  0  0  0  0
  -13.1791   15.5373   72.6271 C   0  0  0  0  0  0  0  0  0  0  0  0
  -14.3767   15.9147   72.7016 O   0  0  0  0  0  0  0  0  0  0  0  0
  -12.7876   14.4468   71.7332 C   0  0  0  0  0  0  0  0  0  0  0  0
  -12.0651   14.6490   70.5848 C   0  0  0  0  0  0  0  0  0  0  0  0
  -11.6904   13.6358   69.7363 C   0  0  0  0  0  0  0  0  0  0  0  0
  -12.0561   12.3372   70.0468 C   0  0  0  0  0  0  0  0  0  0  0  0
  -12.7787   12.0928   71.1858 C   0  0  0  0  0  0  0  0  0  0  0  0
  -13.1419   13.1301   72.0211 C   0  0  0  0  0  0  0  0  0  0  0  0
  -11.5591   11.0718   68.9390 S   0  0  0  0  0  0  0  0  0  0  0  0
  -10.0602   11.0811   68.8401 O   0  0  0  0  0  0  0  0  0  0  0  0
  -12.1589   11.3509   67.5920 O   0  0  0  0  0  0  0  0  0  0  0  0
  -12.0346    9.5169   69.5313 N   0  0  0  0  0  0  0  0  0  0  0  0
  -12.1056   17.7997   74.6750 H   0  0  0  0  0  0  0  0  0  0  0  0
  -11.8621   16.1968   75.3918 H   0  0  0  0  0  0  0  0  0  0  0  0
  -13.5516   16.7555   74.9346 H   0  0  0  0  0  0  0  0  0  0  0  0
  -11.7787   15.6554   70.3391 H   0  0  0  0  0  0  0  0  0  0  0  0
  -11.1188   13.8921   68.8494 H   0  0  0  0  0  0  0  0  0  0  0  0
  -13.0475   11.0673   71.3983 H   0  0  0  0  0  0  0  0  0  0  0  0
  -13.7099   12.9338   72.9153 H   0  0  0  0  0  0  0  0  0  0  0  0
  -11.1375    8.9512   69.6058 H   0  0  0  0  0  0  0  0  0  0  0  0
  -12.5751    9.0413   68.7694 H   0  0  0  0  0  0  0  0  0  0  0  0
  1  2  1  0  0  0  0
  2  3  1  0  0  0  0
  3  4  2  0  0  0  0
  3  5  1  0  0  0  0
  5  6  2  0  0  0  0
  6  7  1  0  0  0  0
  7  8  2  0  0  0  0
  8  9  1  0  0  0  0
  9 10  2  0  0  0  0
  8 11  1  0  0  0  0
 11 12  2  0  0  0  0
 11 13  2  0  0  0  0
 11 14  1  0  0  0  0
  5 10  1  0  0  0  0
  1 15  1  0  0  0  0
  1 16  1  0  0  0  0
  1 17  1  0  0  0  0
  6 18  1  0  0  0  0
  7 19  1  0  0  0  0
  9 20  1  0  0  0  0
 10 21  1  0  0  0  0
 14 22  1  0  0  0  0
 14 23  1  0  0  0  0
M  END
> <Gold.Version>
2022.1.0

> <Gold.Id.Protein>
6LU7|6LU7_protein|mol2

> <Gold.PLP.Fitness>
39.2336

> <Gold.PLP.PLP>
-36.7550

> <Gold.PLP.part.hbond>
-2.3613

> <Gold.PLP.part.metal>
0.0000

> <Gold.PLP.part.buried>
-3.9681

> <Gold.PLP.part.nonpolar>
-32.1268

> <Gold.PLP.part.repulsive>
0.3805

> <Gold.PLP.ligand.clash>
0.0000

> <Gold.PLP.ligand.torsion>
2.8440

> <Gold.PLP.Chemscore.Hbond>
1.9920

> <Gold.PLP.Chemscore.CHOScore>
0.0000

> <Gold.PLP.Chemscore.Metal>
0.0000

> <Gold.Chemscore.Hbonds>
donor molecule, donor type, donor heavy atom, donor atom, acceptor molecule, acceptor atom, score
      L1  H    14    23       P1  1284  1.00
      P1  H  1281  4132       L1    13  0.99

> <Gold.PLP.Chemscore.Internal.Correction>
2.1906

> <Gold.Protein.RotatedTorsions>
[ 3973 1471 1470 1467 ] final   18.87 input   60.00 | X-H torsion
[ 3372  414  413  411 ] final  136.80 input   60.00 | X-H torsion
[ 4268 1114 1113 1110 ] final  -13.12 input   59.99 | X-H torsion
[ 4409  924  923  921 ] final   61.85 input   59.99 | X-H torsion
[ 4183 1244 1243 1241 ] final   56.18 input   59.99 | X-H torsion
[ 3800  178  177  174 ] final   72.12 input   60.00 | X-H torsion
[ 3793  171  170  167 ] final   64.67 input   60.00 | X-H torsion
[ 3576  185  184  181 ] final  -53.23 input   60.00 | X-H torsion
[ 3523  346  345  342 ] final  -22.10 input   60.01 | X-H torsion
[ 3515  339  338  335 ] final  126.40 input   60.00 | X-H torsion
[ 3663  154  153  150 ] final  -31.50 input   60.00 | X-H torsion
[ 4280 1130 1129 1126 ] final   76.63 input   60.00 | X-H torsion

> <Gold.Protein.ActiveResidues>
 VAL20   THR21   CYS22   GLY23   THR24   THR25   THR26   LEU27   ASN28   PRO39  
 ARG40   HIS41   VAL42   CYS44   THR45   SER46   ASP48   MET49   LEU50   PRO52  
 TYR54   TYR118  ASN119  ILE136  GLY138  SER139  PHE140  LEU141  ASN142  GLY143 
 SER144  CYS145  GLY146  SER147  TYR161  HIS163  HIS164  MET165  GLU166  LEU167 
 PRO168  THR169  GLY170  VAL171  HIS172  ALA173  PHE181  PHE185  VAL186  ASP187 
 ARG188  GLN189  THR190  ALA191  GLN192  ALA193 

> <Gold.Protein.RotatedAtoms>
  -14.4878   17.0884   76.3875 H   0  0  0  0  0  0  0  0  0  0  0  0  # atno 3372 bound_to 414 
   -3.0533   22.2993   74.8876 H   0  0  0  0  0  0  0  0  0  0  0  0  # atno 3515 bound_to 339 
   -3.6549   17.6257   72.7944 H   0  0  0  0  0  0  0  0  0  0  0  0  # atno 3523 bound_to 346 
   -8.4136   25.1128   63.5124 H   0  0  0  0  0  0  0  0  0  0  0  0  # atno 3576 bound_to 185 
   -8.0529   28.2957   65.4882 H   0  0  0  0  0  0  0  0  0  0  0  0  # atno 3663 bound_to 154 
   -3.2854   23.6982   71.7562 H   0  0  0  0  0  0  0  0  0  0  0  0  # atno 3793 bound_to 171 
   -6.5777   24.0061   72.1642 H   0  0  0  0  0  0  0  0  0  0  0  0  # atno 3800 bound_to 178 
  -15.1469    7.8804   76.8241 H   0  0  0  0  0  0  0  0  0  0  0  0  # atno 3973 bound_to 1471
  -20.9583   12.3799   63.6009 H   0  0  0  0  0  0  0  0  0  0  0  0  # atno 4183 bound_to 1244
  -13.0052   16.3489   62.1381 H   0  0  0  0  0  0  0  0  0  0  0  0  # atno 4268 bound_to 1114
  -15.5659   19.5119   59.6457 H   0  0  0  0  0  0  0  0  0  0  0  0  # atno 4280 bound_to 1130
  -10.8078   15.0050   56.3794 H   0  0  0  0  0  0  0  0  0  0  0  0  # atno 4409 bound_to 924 
  -15.1641    9.1090   77.8910 LP  0  0  0  0  0  0  0  0  0  0  0  0  # atno 4696 bound_to 1471
  -15.7246    7.6382   78.3259 LP  0  0  0  0  0  0  0  0  0  0  0  0  # atno 4697 bound_to 1471
  -14.0782   18.2927   75.3725 LP  0  0  0  0  0  0  0  0  0  0  0  0  # atno 4731 bound_to 414 
  -15.5315   17.5614   75.2320 LP  0  0  0  0  0  0  0  0  0  0  0  0  # atno 4732 bound_to 414 
  -12.7058   15.1794   61.0469 LP  0  0  0  0  0  0  0  0  0  0  0  0  # atno 4733 bound_to 1114
  -14.2056   15.8117   61.1798 LP  0  0  0  0  0  0  0  0  0  0  0  0  # atno 4734 bound_to 1114
  -12.1906   15.4319   57.1233 LP  0  0  0  0  0  0  0  0  0  0  0  0  # atno 4763 bound_to 924 
  -10.8698   15.0510   58.0048 LP  0  0  0  0  0  0  0  0  0  0  0  0  # atno 4764 bound_to 924 
  -20.4890   13.5693   64.6074 LP  0  0  0  0  0  0  0  0  0  0  0  0  # atno 4771 bound_to 1244
  -19.9157   13.5151   63.0793 LP  0  0  0  0  0  0  0  0  0  0  0  0  # atno 4772 bound_to 1244
   -6.3580   22.6125   71.3531 LP  0  0  0  0  0  0  0  0  0  0  0  0  # atno 4775 bound_to 178 
   -7.6821   22.8172   72.2867 LP  0  0  0  0  0  0  0  0  0  0  0  0  # atno 4776 bound_to 178 
   -2.9020   24.9987   72.6560 LP  0  0  0  0  0  0  0  0  0  0  0  0  # atno 4779 bound_to 171 
   -1.7697   23.8702   72.3228 LP  0  0  0  0  0  0  0  0  0  0  0  0  # atno 4780 bound_to 171 
   -7.1449   26.0513   63.1154 LP  0  0  0  0  0  0  0  0  0  0  0  0  # atno 4783 bound_to 185 
   -8.3897   26.6744   63.9692 LP  0  0  0  0  0  0  0  0  0  0  0  0  # atno 4784 bound_to 185 
   -2.2362   16.8471   72.6235 LP  0  0  0  0  0  0  0  0  0  0  0  0  # atno 4785 bound_to 346 
   -2.2662   18.3840   73.1745 LP  0  0  0  0  0  0  0  0  0  0  0  0  # atno 4786 bound_to 346 
   -3.6478   20.9024   74.3018 LP  0  0  0  0  0  0  0  0  0  0  0  0  # atno 4787 bound_to 339 
   -2.7680   20.9056   75.6775 LP  0  0  0  0  0  0  0  0  0  0  0  0  # atno 4788 bound_to 339 
   -6.7017   29.1676   65.2388 LP  0  0  0  0  0  0  0  0  0  0  0  0  # atno 4797 bound_to 154 
   -8.1686   29.8409   64.9912 LP  0  0  0  0  0  0  0  0  0  0  0  0  # atno 4798 bound_to 154 

$$$$
