#       Name:                xxxx
#       Creating user name   williammccorkindale
#       Creation time:       Sun May 22 19:49:21 2022


#       File generated by GOLD software.
#

@<TRIPOS>MOLECULE
xxxx|x0072|mol2|1|dock1
    26    26     1
SMALL
NO_CHARGES


@<TRIPOS>ATOM
      1 C01        -10.7983  18.7921  67.2884 C.3            1 LIG1101            0.0000
      2 S02        -10.1973  17.1771  66.7205 S.o2           1 LIG1101            0.0000
      3 O03         -8.7572  17.0203  66.9454 O.2            1 LIG1101            0.0000
      4 O04        -10.2349  17.0761  65.2715 O.2            1 LIG1101            0.0000
      5 N05        -11.1047  15.9270  67.4405 N.pl3          1 LIG1101            0.0000
      6 C06        -11.2543  15.9680  68.8723 C.3            1 LIG1101            0.0000
      7 C07        -11.7033  14.6603  69.5093 C.3            1 LIG1101            0.0000
      8 C08        -12.2454  15.0579  70.8735 C.ar           1 LIG1101            0.0000
      9 C09        -11.4881  15.8123  71.7599 C.ar           1 LIG1101            0.0000
     10 C10        -12.0308  16.1703  72.9828 C.ar           1 LIG1101            0.0000
     11 C11        -13.3277  15.8020  73.3044 C.ar           1 LIG1101            0.0000
     12 C12        -14.0846  15.0581  72.4088 C.ar           1 LIG1101            0.0000
     13 C13        -13.5380  14.6934  71.1947 C.ar           1 LIG1101            0.0000
     14 H1         -10.2806  19.5829  66.7474 H              1 LIG1101            0.0000
     15 H2         -11.8689  18.8666  67.1033 H              1 LIG1101            0.0000
     16 H3         -10.6063  18.8963  68.3553 H              1 LIG1101            0.0000
     17 H4         -11.5210  15.1866  66.8850 H              1 LIG1101            0.0000
     18 H5         -11.9920  16.7320  69.1132 H              1 LIG1101            0.0000
     19 H6         -10.2932  16.2422  69.3048 H              1 LIG1101            0.0000
     20 H7         -10.8622  13.9767  69.6153 H              1 LIG1101            0.0000
     21 H8         -12.4809  14.1889  68.9101 H              1 LIG1101            0.0000
     22 H9         -10.4771  16.1195  71.4961 H              1 LIG1101            0.0000
     23 H10        -11.4369  16.7428  73.6938 H              1 LIG1101            0.0000
     24 H11        -13.7544  16.0968  74.2620 H              1 LIG1101            0.0000
     25 H12        -15.1022  14.7646  72.6624 H              1 LIG1101            0.0000
     26 H13        -14.1294  14.1150  70.4864 H              1 LIG1101            0.0000
@<TRIPOS>BOND
    1    1    2 1     
    2    2    3 2     
    3    2    4 2     
    4    2    5 1     
    5    5    6 1     
    6    6    7 1     
    7    7    8 1     
    8    8    9 ar    
    9    9   10 ar    
   10   10   11 ar    
   11   11   12 ar    
   12    8   13 ar    
   13   12   13 ar    
   14    1   14 1     
   15    1   15 1     
   16    1   16 1     
   17    5   17 1     
   18    6   18 1     
   19    6   19 1     
   20    7   20 1     
   21    7   21 1     
   22    9   22 1     
   23   10   23 1     
   24   11   24 1     
   25   12   25 1     
   26   13   26 1     
@<TRIPOS>SUBSTRUCTURE
      1 LIG1101        1
@<TRIPOS>SET
LONE_PAIRS      STATIC     ATOMS    <user>   **** ""
2 3 4
DONOR_HYDROGENS      STATIC     ATOMS    <user>   **** ""
1 17
ATOM$BLUE        STATIC     ATOMS    COLORGROUP SYSTEM
2 3 4
ATOM$RED        STATIC     ATOMS    COLORGROUP SYSTEM
1 17
@<TRIPOS>COMMENT
> <Gold.Version>
2022.1.0

> <Gold.Id.Protein>
6LU7|6LU7_protein|mol2

> <Gold.Protein.RotatedTorsions>
[ 3973 1471 1470 1467 ] final -175.46 input   60.00 | X-H torsion
[ 3372  414  413  411 ] final   55.75 input   60.00 | X-H torsion
[ 4268 1114 1113 1110 ] final   52.52 input   59.99 | X-H torsion
[ 4409  924  923  921 ] final -122.88 input   59.99 | X-H torsion
[ 4183 1244 1243 1241 ] final   40.63 input   59.99 | X-H torsion
[ 3800  178  177  174 ] final   83.09 input   60.00 | X-H torsion
[ 3793  171  170  167 ] final -115.64 input   60.00 | X-H torsion
[ 3576  185  184  181 ] final  112.11 input   60.00 | X-H torsion
[ 3523  346  345  342 ] final  -30.73 input   60.01 | X-H torsion
[ 3515  339  338  335 ] final  -98.52 input   60.00 | X-H torsion
[ 3663  154  153  150 ] final  132.54 input   60.00 | X-H torsion
[ 4280 1130 1129 1126 ] final    5.72 input   60.00 | X-H torsion

> <Gold.Protein.ActiveResidues>
 VAL20   THR21   CYS22   GLY23   THR24   THR25   THR26   LEU27   ASN28   PRO39  
 ARG40   HIS41   VAL42   CYS44   THR45   SER46   ASP48   MET49   LEU50   PRO52  
 TYR54   TYR118  ASN119  ILE136  GLY138  SER139  PHE140  LEU141  ASN142  GLY143 
 SER144  CYS145  GLY146  SER147  TYR161  HIS163  HIS164  MET165  GLU166  LEU167 
 PRO168  THR169  GLY170  VAL171  HIS172  ALA173  PHE181  PHE185  VAL186  ASP187 
 ARG188  GLN189  THR190  ALA191  GLN192  ALA193 

> <Gold.Protein.RotatedAtoms>
  -13.8433   17.9744   75.8584 H   0  0  0  0  0  0  0  0  0  0  0  0  # atno 3372 bound_to 414 
   -2.8750   20.7158   75.5619 H   0  0  0  0  0  0  0  0  0  0  0  0  # atno 3515 bound_to 339 
   -3.6417   17.4932   72.7478 H   0  0  0  0  0  0  0  0  0  0  0  0  # atno 3523 bound_to 346 
   -7.7471   26.8382   63.6781 H   0  0  0  0  0  0  0  0  0  0  0  0  # atno 3576 bound_to 185 
   -7.4783   29.9793   64.9651 H   0  0  0  0  0  0  0  0  0  0  0  0  # atno 3663 bound_to 154 
   -2.0181   24.6756   72.7279 H   0  0  0  0  0  0  0  0  0  0  0  0  # atno 3793 bound_to 171 
   -6.7275   24.0127   72.2619 H   0  0  0  0  0  0  0  0  0  0  0  0  # atno 3800 bound_to 178 
  -15.6133    8.3166   78.5686 H   0  0  0  0  0  0  0  0  0  0  0  0  # atno 3973 bound_to 1471
  -21.0280   12.4165   63.8416 H   0  0  0  0  0  0  0  0  0  0  0  0  # atno 4183 bound_to 1244
  -13.9642   16.3463   61.8065 H   0  0  0  0  0  0  0  0  0  0  0  0  # atno 4268 bound_to 1114
  -16.0298   20.3639   59.1574 H   0  0  0  0  0  0  0  0  0  0  0  0  # atno 4280 bound_to 1130
  -11.7037   15.3038   57.9942 H   0  0  0  0  0  0  0  0  0  0  0  0  # atno 4409 bound_to 924 
  -15.4386    7.3707   77.2561 LP  0  0  0  0  0  0  0  0  0  0  0  0  # atno 4696 bound_to 1471
  -14.9805    8.9372   77.2039 LP  0  0  0  0  0  0  0  0  0  0  0  0  # atno 4697 bound_to 1471
  -15.1985   18.0193   74.9587 LP  0  0  0  0  0  0  0  0  0  0  0  0  # atno 4731 bound_to 414 
  -15.0603   16.9426   76.1787 LP  0  0  0  0  0  0  0  0  0  0  0  0  # atno 4732 bound_to 414 
  -12.4256   15.8164   61.7952 LP  0  0  0  0  0  0  0  0  0  0  0  0  # atno 4733 bound_to 1114
  -13.5199   15.1773   60.7654 LP  0  0  0  0  0  0  0  0  0  0  0  0  # atno 4734 bound_to 1114
  -10.3863   14.8897   57.1334 LP  0  0  0  0  0  0  0  0  0  0  0  0  # atno 4763 bound_to 924 
  -11.7717   15.2923   56.3684 LP  0  0  0  0  0  0  0  0  0  0  0  0  # atno 4764 bound_to 924 
  -20.3262   13.7308   64.4958 LP  0  0  0  0  0  0  0  0  0  0  0  0  # atno 4771 bound_to 1244
  -20.0083   13.3168   62.9485 LP  0  0  0  0  0  0  0  0  0  0  0  0  # atno 4772 bound_to 1244
   -6.2457   22.7535   71.3507 LP  0  0  0  0  0  0  0  0  0  0  0  0  # atno 4775 bound_to 178 
   -7.6435   22.6696   72.1908 LP  0  0  0  0  0  0  0  0  0  0  0  0  # atno 4776 bound_to 178 
   -2.4108   23.3758   71.8312 LP  0  0  0  0  0  0  0  0  0  0  0  0  # atno 4779 bound_to 171 
   -3.5372   24.5089   72.1690 LP  0  0  0  0  0  0  0  0  0  0  0  0  # atno 4780 bound_to 171 
   -8.8001   25.6120   63.8673 LP  0  0  0  0  0  0  0  0  0  0  0  0  # atno 4783 bound_to 185 
   -7.4058   25.3761   63.0506 LP  0  0  0  0  0  0  0  0  0  0  0  0  # atno 4784 bound_to 185 
   -2.1207   16.9216   72.6594 LP  0  0  0  0  0  0  0  0  0  0  0  0  # atno 4785 bound_to 346 
   -2.3950   18.4429   73.1856 LP  0  0  0  0  0  0  0  0  0  0  0  0  # atno 4786 bound_to 346 
   -2.9220   22.2739   75.0949 LP  0  0  0  0  0  0  0  0  0  0  0  0  # atno 4787 bound_to 339 
   -3.6733   21.1288   74.2054 LP  0  0  0  0  0  0  0  0  0  0  0  0  # atno 4788 bound_to 339 
   -8.5282   28.7873   65.3186 LP  0  0  0  0  0  0  0  0  0  0  0  0  # atno 4797 bound_to 154 
   -6.9208   28.5256   65.4383 LP  0  0  0  0  0  0  0  0  0  0  0  0  # atno 4798 bound_to 154 

> <Gold.Score>
     Score     S(PLP)   S(hbond)     S(cho)   S(metal)  DE(clash)   DE(tors)     intcor
     43.27     -40.76       1.00       0.00       0.00       0.00       0.81       1.12

> <Gold.PLP.Fitness>
43.2692

> <Gold.PLP.PLP>
-40.7648

> <Gold.PLP.part.hbond>
-1.0000

> <Gold.PLP.part.metal>
0.0000

> <Gold.PLP.part.buried>
-5.5924

> <Gold.PLP.part.nonpolar>
-34.8654

> <Gold.PLP.part.repulsive>
0.0584

> <Gold.PLP.ligand.clash>
0.0000

> <Gold.PLP.ligand.torsion>
0.8082

> <Gold.PLP.Chemscore.Hbond>
1.0000

> <Gold.PLP.Chemscore.CHOScore>
0.0000

> <Gold.PLP.Chemscore.Metal>
0.0000

> <Gold.Chemscore.Hbonds>
donor molecule, donor type, donor heavy atom, donor atom, acceptor molecule, acceptor atom, score
      P1  H  1105  4261       L1     4  1.00

> <Gold.PLP.Chemscore.Internal.Correction>
1.1208

