#       Name:                unknown
#       Creating user name   williammccorkindale
#       Creation time:       Tue Jun  7 14:55:39 2022


#       File generated by GOLD software.
#

@<TRIPOS>MOLECULE
unknown|prepared_Mpro-x2193|mol2|1|dock1
    33    34     1
SMALL
NO_CHARGES


@<TRIPOS>ATOM
      1 C1         -11.9599  15.8360  64.6592 C.3            1 RES1               0.0000
      2 S2         -10.5204  15.4314  65.6423 S.o2           1 RES1               0.0000
      3 O3          -9.5025  16.5448  65.5047 O.2            1 RES1               0.0000
      4 O4          -9.9322  14.1211  65.2294 O.2            1 RES1               0.0000
      5 C5         -11.0282  15.4226  67.3167 C.ar           1 RES1               0.0000
      6 C6         -10.7989  16.4920  68.1553 C.ar           1 RES1               0.0000
      7 C7         -11.1919  16.5002  69.4735 C.ar           1 RES1               0.0000
      8 C8         -11.8495  15.4108  70.0284 C.ar           1 RES1               0.0000
      9 C9         -12.0818  14.3406  69.1985 C.ar           1 RES1               0.0000
     10 C10        -11.6821  14.3488  67.8829 C.ar           1 RES1               0.0000
     11 N11        -12.2659  15.4080  71.3899 N.pl3          1 RES1               0.0000
     12 C12        -13.3014  14.4749  71.7706 C.3            1 RES1               0.0000
     13 C13        -13.2012  14.3566  73.2990 C.3            1 RES1               0.0000
     14 N14        -13.4822  15.6656  73.8145 N.3            1 RES1               0.0000
     15 C15        -12.3592  16.5396  73.5870 C.3            1 RES1               0.0000
     16 C16        -11.6544  16.3166  72.3029 C.3            1 RES1               0.0000
     17 H17        -12.4437  16.7081  65.1450 H              1 RES1               0.0000
     18 H18        -11.7068  16.0092  63.6133 H              1 RES1               0.0000
     19 H19        -12.6735  14.9817  64.8005 H              1 RES1               0.0000
     20 H20        -10.2846  17.3554  67.7383 H              1 RES1               0.0000
     21 H21        -10.9948  17.3685  70.1243 H              1 RES1               0.0000
     22 H22        -12.5914  13.4823  69.6011 H              1 RES1               0.0000
     23 H23        -11.8619  13.5025  67.2139 H              1 RES1               0.0000
     24 H24        -14.3011  14.9153  71.5541 H              1 RES1               0.0000
     25 H25        -13.1730  13.4707  71.3183 H              1 RES1               0.0000
     26 H26        -13.9284  13.5950  73.6320 H              1 RES1               0.0000
     27 H27        -12.1757  14.0773  73.5612 H              1 RES1               0.0000
     28 H28        -14.3375  16.0256  73.2950 H              1 RES1               0.0000
     29 H29        -11.6550  16.3807  74.4519 H              1 RES1               0.0000
     30 H30        -12.7298  17.5778  73.7139 H              1 RES1               0.0000
     31 H31        -10.6051  16.0129  72.4983 H              1 RES1               0.0000
     32 H32        -11.5653  17.3306  71.8092 H              1 RES1               0.0000
     33 ****       -13.6497  15.6336  74.7999 LP             1 RES1               0.0000
@<TRIPOS>BOND
    1    1    2 1     
    2    2    3 2     
    3    2    4 2     
    4    2    5 1     
    5    5    6 ar    
    6    6    7 ar    
    7    7    8 ar    
    8    8    9 ar    
    9    9   10 ar    
   10    8   11 1     
   11   11   12 1     
   12   12   13 1     
   13   13   14 1     
   14   14   15 1     
   15   15   16 1     
   16   10    5 ar    
   17   16   11 1     
   18    1   17 1     
   19    1   18 1     
   20    1   19 1     
   21    6   20 1     
   22    7   21 1     
   23    9   22 1     
   24   10   23 1     
   25   12   24 1     
   26   12   25 1     
   27   13   26 1     
   28   13   27 1     
   29   14   28 1     
   30   15   29 1     
   31   15   30 1     
   32   16   31 1     
   33   16   32 1     
   34   14   33 1     
@<TRIPOS>SUBSTRUCTURE
      1 RES1           1
@<TRIPOS>SET
LONE_PAIRS      STATIC     ATOMS    <user>   **** ""
3 3 4 33
DONOR_HYDROGENS      STATIC     ATOMS    <user>   **** ""
1 28
ATOM$BLUE        STATIC     ATOMS    COLORGROUP SYSTEM
3 3 4 33
ATOM$RED        STATIC     ATOMS    COLORGROUP SYSTEM
1 28
@<TRIPOS>COMMENT
> <Gold.Version>
2022.1.0

> <Gold.Id.Protein>
6LU7|6LU7_protein|mol2

> <Gold.Protein.RotatedTorsions>
[ 3973 1471 1470 1467 ] final -141.82 input   60.00 | X-H torsion
[ 3372  414  413  411 ] final -102.75 input   60.00 | X-H torsion
[ 4268 1114 1113 1110 ] final  -15.42 input   59.99 | X-H torsion
[ 4409  924  923  921 ] final  -60.27 input   59.99 | X-H torsion
[ 4183 1244 1243 1241 ] final  144.96 input   59.99 | X-H torsion
[ 3800  178  177  174 ] final -115.21 input   60.00 | X-H torsion
[ 3793  171  170  167 ] final  -23.31 input   60.00 | X-H torsion
[ 3576  185  184  181 ] final   83.27 input   60.00 | X-H torsion
[ 3523  346  345  342 ] final  -50.05 input   60.01 | X-H torsion
[ 3515  339  338  335 ] final  -30.80 input   60.00 | X-H torsion
[ 3663  154  153  150 ] final -172.37 input   60.00 | X-H torsion
[ 4280 1130 1129 1126 ] final  113.13 input   60.00 | X-H torsion

> <Gold.Protein.ActiveResidues>
 VAL20   THR21   CYS22   GLY23   THR24   THR25   THR26   LEU27   ASN28   PRO39  
 ARG40   HIS41   VAL42   CYS44   THR45   SER46   ASP48   MET49   LEU50   PRO52  
 TYR54   TYR118  ASN119  ILE136  GLY138  SER139  PHE140  LEU141  ASN142  GLY143 
 SER144  CYS145  GLY146  SER147  TYR161  HIS163  HIS164  MET165  GLU166  LEU167 
 PRO168  THR169  GLY170  VAL171  HIS172  ALA173  PHE181  PHE185  VAL186  ASP187 
 ARG188  GLN189  THR190  ALA191  GLN192  ALA193 

> <Gold.Protein.RotatedAtoms>
  -15.5247   17.5691   75.2319 H   0  0  0  0  0  0  0  0  0  0  0  0  # atno 3372 bound_to 414 
   -3.4488   20.5155   74.7141 H   0  0  0  0  0  0  0  0  0  0  0  0  # atno 3515 bound_to 339 
   -3.5379   17.2117   72.6546 H   0  0  0  0  0  0  0  0  0  0  0  0  # atno 3523 bound_to 346 
   -8.1620   26.7925   63.8860 H   0  0  0  0  0  0  0  0  0  0  0  0  # atno 3576 bound_to 185 
   -6.7926   29.4802   65.1395 H   0  0  0  0  0  0  0  0  0  0  0  0  # atno 3663 bound_to 154 
   -3.3244   24.8179   72.4164 H   0  0  0  0  0  0  0  0  0  0  0  0  # atno 3793 bound_to 171 
   -7.2620   22.3116   71.7739 H   0  0  0  0  0  0  0  0  0  0  0  0  # atno 3800 bound_to 178 
  -15.4225    8.7960   78.4030 H   0  0  0  0  0  0  0  0  0  0  0  0  # atno 3973 bound_to 1471
  -20.1388   13.1063   62.8824 H   0  0  0  0  0  0  0  0  0  0  0  0  # atno 4183 bound_to 1244
  -12.9708   16.3338   62.1345 H   0  0  0  0  0  0  0  0  0  0  0  0  # atno 4268 bound_to 1114
  -15.5282   18.9674   59.4317 H   0  0  0  0  0  0  0  0  0  0  0  0  # atno 4280 bound_to 1130
  -12.1843   15.4330   57.1582 H   0  0  0  0  0  0  0  0  0  0  0  0  # atno 4409 bound_to 924 
  -15.6267    7.3130   77.7650 LP  0  0  0  0  0  0  0  0  0  0  0  0  # atno 4696 bound_to 1471
  -14.9844    8.5122   76.8617 LP  0  0  0  0  0  0  0  0  0  0  0  0  # atno 4697 bound_to 1471
  -14.4921   17.0796   76.3904 LP  0  0  0  0  0  0  0  0  0  0  0  0  # atno 4731 bound_to 414 
  -14.0734   18.2905   75.3779 LP  0  0  0  0  0  0  0  0  0  0  0  0  # atno 4732 bound_to 414 
  -12.7342   15.1674   61.0248 LP  0  0  0  0  0  0  0  0  0  0  0  0  # atno 4733 bound_to 1114
  -14.2118   15.8389   61.2055 LP  0  0  0  0  0  0  0  0  0  0  0  0  # atno 4734 bound_to 1114
  -10.8404   15.0418   57.9882 LP  0  0  0  0  0  0  0  0  0  0  0  0  # atno 4763 bound_to 924 
  -10.8335   15.0100   56.3555 LP  0  0  0  0  0  0  0  0  0  0  0  0  # atno 4764 bound_to 924 
  -21.0584   12.5021   64.0812 LP  0  0  0  0  0  0  0  0  0  0  0  0  # atno 4771 bound_to 1244
  -20.1716   13.8507   64.3290 LP  0  0  0  0  0  0  0  0  0  0  0  0  # atno 4772 bound_to 1244
   -7.2993   23.7650   72.5050 LP  0  0  0  0  0  0  0  0  0  0  0  0  # atno 4775 bound_to 178 
   -6.0516   23.3711   71.5278 LP  0  0  0  0  0  0  0  0  0  0  0  0  # atno 4776 bound_to 178 
   -1.7853   24.3180   72.5868 LP  0  0  0  0  0  0  0  0  0  0  0  0  # atno 4779 bound_to 171 
   -2.8470   23.4233   71.7272 LP  0  0  0  0  0  0  0  0  0  0  0  0  # atno 4780 bound_to 171 
   -8.6040   25.2441   63.6512 LP  0  0  0  0  0  0  0  0  0  0  0  0  # atno 4783 bound_to 185 
   -7.1841   25.7900   63.0573 LP  0  0  0  0  0  0  0  0  0  0  0  0  # atno 4784 bound_to 185 
   -1.9152   17.1423   72.7551 LP  0  0  0  0  0  0  0  0  0  0  0  0  # atno 4785 bound_to 346 
   -2.7051   18.5057   73.1837 LP  0  0  0  0  0  0  0  0  0  0  0  0  # atno 4786 bound_to 346 
   -2.6383   21.4901   75.7344 LP  0  0  0  0  0  0  0  0  0  0  0  0  # atno 4787 bound_to 339 
   -3.3790   22.1143   74.4197 LP  0  0  0  0  0  0  0  0  0  0  0  0  # atno 4788 bound_to 339 
   -8.4126   29.6117   65.0587 LP  0  0  0  0  0  0  0  0  0  0  0  0  # atno 4797 bound_to 154 
   -7.7269   28.2040   65.5224 LP  0  0  0  0  0  0  0  0  0  0  0  0  # atno 4798 bound_to 154 

> <Gold.Score>
     Score     S(PLP)   S(hbond)     S(cho)   S(metal)  DE(clash)   DE(tors)     intcor
     45.98     -43.42       1.00       0.00       0.00       0.00       1.30       2.17

> <Gold.PLP.Fitness>
45.9846

> <Gold.PLP.PLP>
-43.4166

> <Gold.PLP.part.hbond>
-2.3201

> <Gold.PLP.part.metal>
0.0000

> <Gold.PLP.part.buried>
-6.1015

> <Gold.PLP.part.nonpolar>
-36.6070

> <Gold.PLP.part.repulsive>
0.4042

> <Gold.PLP.ligand.clash>
0.0000

> <Gold.PLP.ligand.torsion>
1.2999

> <Gold.PLP.Chemscore.Hbond>
1.0000

> <Gold.PLP.Chemscore.CHOScore>
0.0000

> <Gold.PLP.Chemscore.Metal>
0.0000

> <Gold.Chemscore.Hbonds>
donor molecule, donor type, donor heavy atom, donor atom, acceptor molecule, acceptor atom, score
      P1  H  1105  4261       L1     3  1.00

> <Gold.PLP.Chemscore.Internal.Correction>
2.1677

