#       Name:                unknown
#       Creating user name   williammccorkindale
#       Creation time:       Tue Jun  7 14:55:37 2022


#       File generated by GOLD software.
#

@<TRIPOS>MOLECULE
unknown|prepared_Mpro-x0161|mol2|1|dock1
    26    26     1
SMALL
NO_CHARGES


@<TRIPOS>ATOM
      1 C1         -12.6049  15.9276  73.5908 C.3            1 RES1               0.0000
      2 O2         -12.2540  16.0448  72.2366 O.3            1 RES1               0.0000
      3 C3         -12.4553  14.9713  71.3902 C.2            1 RES1               0.0000
      4 O4         -13.0374  13.9647  71.8599 O.2            1 RES1               0.0000
      5 C5         -12.0003  15.0161  69.9917 C.ar           1 RES1               0.0000
      6 C6         -12.0354  13.9031  69.1864 C.ar           1 RES1               0.0000
      7 C7         -11.6033  13.9434  67.8560 C.ar           1 RES1               0.0000
      8 C8         -11.1277  15.1248  67.3282 C.ar           1 RES1               0.0000
      9 C9         -11.1067  16.2210  68.1642 C.ar           1 RES1               0.0000
     10 C10        -11.5266  16.1936  69.4663 C.ar           1 RES1               0.0000
     11 S11        -10.5806  15.2123  65.6738 S.o2           1 RES1               0.0000
     12 O12        -11.7992  15.3074  64.8031 O.2            1 RES1               0.0000
     13 O13         -9.6933  16.4276  65.5008 O.2            1 RES1               0.0000
     14 N14         -9.6529  13.8434  65.2138 N.3            1 RES1               0.0000
     15 H15        -12.2003  16.7519  74.2123 H              1 RES1               0.0000
     16 H16        -12.3128  14.9700  74.0483 H              1 RES1               0.0000
     17 H17        -13.7264  15.9587  73.6327 H              1 RES1               0.0000
     18 H18        -12.4076  12.9731  69.5948 H              1 RES1               0.0000
     19 H19        -11.6244  13.0834  67.2149 H              1 RES1               0.0000
     20 H20        -10.7360  17.1567  67.7647 H              1 RES1               0.0000
     21 H21        -11.5061  17.0669  70.1204 H              1 RES1               0.0000
     22 H22        -10.1827  13.2711  64.5244 H              1 RES1               0.0000
     23 H23         -8.7286  14.0797  64.8202 H              1 RES1               0.0000
     24 ****       -13.3365  13.9600  72.8140 LP             1 RES1               0.0000
     25 ****       -13.2023  13.1667  71.2802 LP             1 RES1               0.0000
     26 ****        -9.4862  13.3270  66.0538 LP             1 RES1               0.0000
@<TRIPOS>BOND
    1    1    2 1     
    2    2    3 1     
    3    3    4 2     
    4    3    5 1     
    5    5    6 ar    
    6    6    7 ar    
    7    7    8 ar    
    8    8    9 ar    
    9    9   10 ar    
   10    8   11 1     
   11   11   12 2     
   12   11   13 2     
   13   11   14 1     
   14    5   10 ar    
   15    1   15 1     
   16    1   16 1     
   17    1   17 1     
   18    6   18 1     
   19    7   19 1     
   20    9   20 1     
   21   10   21 1     
   22   14   22 1     
   23   14   23 1     
   24    4   24 1     
   25    4   25 1     
   26   14   26 1     
@<TRIPOS>SUBSTRUCTURE
      1 RES1           1
@<TRIPOS>SET
LONE_PAIRS      STATIC     ATOMS    <user>   **** ""
5 24 25 12 13 26
DONOR_HYDROGENS      STATIC     ATOMS    <user>   **** ""
2 22 23
ATOM$BLUE        STATIC     ATOMS    COLORGROUP SYSTEM
5 24 25 12 13 26
ATOM$RED        STATIC     ATOMS    COLORGROUP SYSTEM
2 22 23
@<TRIPOS>COMMENT
> <Gold.Version>
2022.1.0

> <Gold.Id.Protein>
6LU7|6LU7_protein|mol2

> <Gold.Protein.RotatedTorsions>
[ 3973 1471 1470 1467 ] final  106.33 input   60.00 | X-H torsion
[ 3372  414  413  411 ] final   -8.06 input   60.00 | X-H torsion
[ 4268 1114 1113 1110 ] final   34.60 input   59.99 | X-H torsion
[ 4409  924  923  921 ] final  103.58 input   59.99 | X-H torsion
[ 4183 1244 1243 1241 ] final  148.99 input   59.99 | X-H torsion
[ 3800  178  177  174 ] final -172.43 input   60.00 | X-H torsion
[ 3793  171  170  167 ] final -154.71 input   60.00 | X-H torsion
[ 3576  185  184  181 ] final   31.40 input   60.00 | X-H torsion
[ 3523  346  345  342 ] final   32.98 input   60.01 | X-H torsion
[ 3515  339  338  335 ] final  133.62 input   60.00 | X-H torsion
[ 3663  154  153  150 ] final  -83.04 input   60.00 | X-H torsion
[ 4280 1130 1129 1126 ] final   13.70 input   60.00 | X-H torsion

> <Gold.Protein.ActiveResidues>
 VAL20   THR21   CYS22   GLY23   THR24   THR25   THR26   LEU27   ASN28   PRO39  
 ARG40   HIS41   VAL42   CYS44   THR45   SER46   ASP48   MET49   LEU50   PRO52  
 TYR54   TYR118  ASN119  ILE136  GLY138  SER139  PHE140  LEU141  ASN142  GLY143 
 SER144  CYS145  GLY146  SER147  TYR161  HIS163  HIS164  MET165  GLU166  LEU167 
 PRO168  THR169  GLY170  VAL171  HIS172  ALA173  PHE181  PHE185  VAL186  ASP187 
 ARG188  GLN189  THR190  ALA191  GLN192  ALA193 

> <Gold.Protein.RotatedAtoms>
  -14.3926   18.3455   75.1237 H   0  0  0  0  0  0  0  0  0  0  0  0  # atno 3372 bound_to 414 
   -2.9907   22.2922   74.9873 H   0  0  0  0  0  0  0  0  0  0  0  0  # atno 3515 bound_to 339 
   -3.2700   18.3450   73.0838 H   0  0  0  0  0  0  0  0  0  0  0  0  # atno 3523 bound_to 346 
   -8.7338   26.2217   64.0190 H   0  0  0  0  0  0  0  0  0  0  0  0  # atno 3576 bound_to 185 
   -7.2390   28.2975   65.5061 H   0  0  0  0  0  0  0  0  0  0  0  0  # atno 3663 bound_to 154 
   -1.7532   24.1573   72.4973 H   0  0  0  0  0  0  0  0  0  0  0  0  # atno 3793 bound_to 171 
   -7.6849   22.8850   72.3184 H   0  0  0  0  0  0  0  0  0  0  0  0  # atno 3800 bound_to 178 
  -15.6557    7.3511   77.8900 H   0  0  0  0  0  0  0  0  0  0  0  0  # atno 3973 bound_to 1471
  -20.1039   13.1607   62.8946 H   0  0  0  0  0  0  0  0  0  0  0  0  # atno 4183 bound_to 1244
  -13.7392   16.4317   61.9711 H   0  0  0  0  0  0  0  0  0  0  0  0  # atno 4268 bound_to 1114
  -15.9664   20.3159   59.2606 H   0  0  0  0  0  0  0  0  0  0  0  0  # atno 4280 bound_to 1130
  -10.4256   14.8999   56.9155 H   0  0  0  0  0  0  0  0  0  0  0  0  # atno 4409 bound_to 924 
  -15.0046    8.3873   76.8174 LP  0  0  0  0  0  0  0  0  0  0  0  0  # atno 4696 bound_to 1471
  -15.3718    8.8930   78.3260 LP  0  0  0  0  0  0  0  0  0  0  0  0  # atno 4697 bound_to 1471
  -15.5532   17.2756   75.5194 LP  0  0  0  0  0  0  0  0  0  0  0  0  # atno 4731 bound_to 414 
  -14.1524   17.3125   76.3579 LP  0  0  0  0  0  0  0  0  0  0  0  0  # atno 4732 bound_to 414 
  -12.3885   15.6067   61.5932 LP  0  0  0  0  0  0  0  0  0  0  0  0  # atno 4733 bound_to 1114
  -13.7837   15.3011   60.8017 LP  0  0  0  0  0  0  0  0  0  0  0  0  # atno 4734 bound_to 1114
  -11.9369   15.3445   56.5078 LP  0  0  0  0  0  0  0  0  0  0  0  0  # atno 4763 bound_to 924 
  -11.5084   15.2443   58.0804 LP  0  0  0  0  0  0  0  0  0  0  0  0  # atno 4764 bound_to 924 
  -21.0555   12.4735   64.0216 LP  0  0  0  0  0  0  0  0  0  0  0  0  # atno 4771 bound_to 1244
  -20.2097   13.8246   64.3764 LP  0  0  0  0  0  0  0  0  0  0  0  0  # atno 4772 bound_to 1244
   -6.5147   23.9991   72.1242 LP  0  0  0  0  0  0  0  0  0  0  0  0  # atno 4775 bound_to 178 
   -6.4103   22.5595   71.3604 LP  0  0  0  0  0  0  0  0  0  0  0  0  # atno 4776 bound_to 178 
   -3.0194   23.4958   71.7183 LP  0  0  0  0  0  0  0  0  0  0  0  0  # atno 4779 bound_to 171 
   -3.1954   24.9108   72.5141 LP  0  0  0  0  0  0  0  0  0  0  0  0  # atno 4780 bound_to 171 
   -7.9217   25.0537   63.2289 LP  0  0  0  0  0  0  0  0  0  0  0  0  # atno 4783 bound_to 185 
   -7.2904   26.5552   63.3456 LP  0  0  0  0  0  0  0  0  0  0  0  0  # atno 4784 bound_to 185 
   -3.1039   16.8186   72.5448 LP  0  0  0  0  0  0  0  0  0  0  0  0  # atno 4785 bound_to 346 
   -1.7861   17.6882   72.9618 LP  0  0  0  0  0  0  0  0  0  0  0  0  # atno 4786 bound_to 346 
   -3.6644   21.0077   74.2496 LP  0  0  0  0  0  0  0  0  0  0  0  0  # atno 4787 bound_to 339 
   -2.8144   20.8075   75.6295 LP  0  0  0  0  0  0  0  0  0  0  0  0  # atno 4788 bound_to 339 
   -7.1082   29.8432   65.0145 LP  0  0  0  0  0  0  0  0  0  0  0  0  # atno 4797 bound_to 154 
   -8.5817   29.1636   65.1975 LP  0  0  0  0  0  0  0  0  0  0  0  0  # atno 4798 bound_to 154 

> <Gold.Score>
     Score     S(PLP)   S(hbond)     S(cho)   S(metal)  DE(clash)   DE(tors)     intcor
     37.36     -31.55       1.99       0.00       0.00       0.00       1.20       2.23

> <Gold.PLP.Fitness>
37.3593

> <Gold.PLP.PLP>
-31.5486

> <Gold.PLP.part.hbond>
-2.0000

> <Gold.PLP.part.metal>
0.0000

> <Gold.PLP.part.buried>
-7.3174

> <Gold.PLP.part.nonpolar>
-23.5465

> <Gold.PLP.part.repulsive>
0.3725

> <Gold.PLP.ligand.clash>
0.0000

> <Gold.PLP.ligand.torsion>
1.1954

> <Gold.PLP.Chemscore.Hbond>
1.9920

> <Gold.PLP.Chemscore.CHOScore>
0.0000

> <Gold.PLP.Chemscore.Metal>
0.0000

> <Gold.Chemscore.Hbonds>
donor molecule, donor type, donor heavy atom, donor atom, acceptor molecule, acceptor atom, score
      L1  H    14    23       P1  1103  0.99
      P1  H  1105  4261       L1    13  1.00

> <Gold.PLP.Chemscore.Internal.Correction>
2.2256

