#       Name:                unknown
#       Creating user name   williammccorkindale
#       Creation time:       Tue Jun  7 14:55:37 2022


#       File generated by GOLD software.
#

@<TRIPOS>MOLECULE
unknown|prepared_Mpro-x0305|mol2|1|dock4
    22    22     1
SMALL
NO_CHARGES


@<TRIPOS>ATOM
      1 C1         -11.9198  13.0303  67.1910 C.3            1 RES1               0.0000
      2 C2         -11.6464  13.3975  68.6252 C.3            1 RES1               0.0000
      3 N3         -12.5766  14.3215  69.1803 N.pl3          1 RES1               0.0000
      4 C4         -12.5229  14.7491  70.5309 C.ar           1 RES1               0.0000
      5 C5         -11.8677  15.8973  70.9105 C.ar           1 RES1               0.0000
      6 C6         -11.7992  16.3368  72.2138 C.ar           1 RES1               0.0000
      7 C7         -12.4153  15.5948  73.1928 C.ar           1 RES1               0.0000
      8 C8         -12.3935  15.9790  74.5738 C.1            1 RES1               0.0000
      9 N9         -12.3929  16.2943  75.6943 N.1            1 RES1               0.0000
     10 C10        -13.0668  14.4538  72.8181 C.ar           1 RES1               0.0000
     11 N11        -13.1195  14.0415  71.5219 N.ar           1 RES1               0.0000
     12 H12        -12.9899  12.8806  66.9683 H              1 RES1               0.0000
     13 H13        -11.5409  13.7893  66.4773 H              1 RES1               0.0000
     14 H14        -11.3188  12.1026  66.9825 H              1 RES1               0.0000
     15 H15        -10.6170  13.7730  68.6828 H              1 RES1               0.0000
     16 H16        -11.7193  12.4395  69.2117 H              1 RES1               0.0000
     17 H17        -13.3328  14.7068  68.5798 H              1 RES1               0.0000
     18 H18        -11.3698  16.5054  70.1530 H              1 RES1               0.0000
     19 H19        -11.2741  17.2451  72.4709 H              1 RES1               0.0000
     20 H20        -13.5719  13.8216  73.5263 H              1 RES1               0.0000
     21 ****       -12.3925  16.5652  76.6569 LP             1 RES1               0.0000
     22 ****       -13.6084  13.1990  71.2957 LP             1 RES1               0.0000
@<TRIPOS>BOND
    1    1    2 1     
    2    2    3 1     
    3    3    4 1     
    4    4    5 ar    
    5    5    6 ar    
    6    6    7 ar    
    7    7    8 1     
    8    8    9 3     
    9    7   10 ar    
   10   10   11 ar    
   11    4   11 ar    
   12    1   12 1     
   13    1   13 1     
   14    1   14 1     
   15    2   15 1     
   16    2   16 1     
   17    3   17 1     
   18    5   18 1     
   19    6   19 1     
   20   10   20 1     
   21    9   21 1     
   22   11   22 1     
@<TRIPOS>SUBSTRUCTURE
      1 RES1           1
@<TRIPOS>SET
LONE_PAIRS      STATIC     ATOMS    <user>   **** ""
2 21 22
DONOR_HYDROGENS      STATIC     ATOMS    <user>   **** ""
1 17
ATOM$BLUE        STATIC     ATOMS    COLORGROUP SYSTEM
2 21 22
ATOM$RED        STATIC     ATOMS    COLORGROUP SYSTEM
1 17
@<TRIPOS>COMMENT
> <Gold.Version>
2022.1.0

> <Gold.Id.Protein>
6LU7|6LU7_protein|mol2

> <Gold.Protein.RotatedTorsions>
[ 3973 1471 1470 1467 ] final -116.07 input   60.00 | X-H torsion
[ 3372  414  413  411 ] final   91.16 input   60.00 | X-H torsion
[ 4268 1114 1113 1110 ] final -109.26 input   59.99 | X-H torsion
[ 4409  924  923  921 ] final  141.86 input   59.99 | X-H torsion
[ 4183 1244 1243 1241 ] final  -97.14 input   59.99 | X-H torsion
[ 3800  178  177  174 ] final  102.44 input   60.00 | X-H torsion
[ 3793  171  170  167 ] final  140.49 input   60.00 | X-H torsion
[ 3576  185  184  181 ] final -131.50 input   60.00 | X-H torsion
[ 3523  346  345  342 ] final   63.87 input   60.01 | X-H torsion
[ 3515  339  338  335 ] final   52.40 input   60.00 | X-H torsion
[ 3663  154  153  150 ] final  -29.01 input   60.00 | X-H torsion
[ 4280 1130 1129 1126 ] final  139.49 input   60.00 | X-H torsion

> <Gold.Protein.ActiveResidues>
 VAL20   THR21   CYS22   GLY23   THR24   THR25   THR26   LEU27   ASN28   PRO39  
 ARG40   HIS41   VAL42   CYS44   THR45   SER46   ASP48   MET49   LEU50   PRO52  
 TYR54   TYR118  ASN119  ILE136  GLY138  SER139  PHE140  LEU141  ASN142  GLY143 
 SER144  CYS145  GLY146  SER147  TYR161  HIS163  HIS164  MET165  GLU166  LEU167 
 PRO168  THR169  GLY170  VAL171  HIS172  ALA173  PHE181  PHE185  VAL186  ASP187 
 ARG188  GLN189  THR190  ALA191  GLN192  ALA193 

> <Gold.Protein.RotatedAtoms>
  -13.9557   17.5563   76.2282 H   0  0  0  0  0  0  0  0  0  0  0  0  # atno 3372 bound_to 414 
   -3.6135   21.6255   74.1793 H   0  0  0  0  0  0  0  0  0  0  0  0  # atno 3515 bound_to 339 
   -2.8043   18.4979   73.1756 H   0  0  0  0  0  0  0  0  0  0  0  0  # atno 3523 bound_to 346 
   -7.3719   25.4251   63.0501 H   0  0  0  0  0  0  0  0  0  0  0  0  # atno 3576 bound_to 185 
   -8.0890   28.3133   65.4818 H   0  0  0  0  0  0  0  0  0  0  0  0  # atno 3663 bound_to 154 
   -2.1789   23.4413   71.9383 H   0  0  0  0  0  0  0  0  0  0  0  0  # atno 3793 bound_to 171 
   -7.0012   23.9479   72.4029 H   0  0  0  0  0  0  0  0  0  0  0  0  # atno 3800 bound_to 178 
  -15.2547    9.0362   78.1061 H   0  0  0  0  0  0  0  0  0  0  0  0  # atno 3973 bound_to 1471
  -20.1562   13.8593   64.2986 H   0  0  0  0  0  0  0  0  0  0  0  0  # atno 4183 bound_to 1244
  -12.4816   15.3614   61.3067 H   0  0  0  0  0  0  0  0  0  0  0  0  # atno 4268 bound_to 1114
  -15.6123   18.6938   59.1148 H   0  0  0  0  0  0  0  0  0  0  0  0  # atno 4280 bound_to 1130
  -10.4588   14.9211   57.5282 H   0  0  0  0  0  0  0  0  0  0  0  0  # atno 4409 bound_to 924 
  -15.7094    7.4742   78.1441 LP  0  0  0  0  0  0  0  0  0  0  0  0  # atno 4696 bound_to 1471
  -15.0708    8.1089   76.7817 LP  0  0  0  0  0  0  0  0  0  0  0  0  # atno 4697 bound_to 1471
  -14.6966   18.2956   74.9822 LP  0  0  0  0  0  0  0  0  0  0  0  0  # atno 4731 bound_to 414 
  -15.4490   17.0874   75.7828 LP  0  0  0  0  0  0  0  0  0  0  0  0  # atno 4732 bound_to 414 
  -14.0591   15.5355   60.9472 LP  0  0  0  0  0  0  0  0  0  0  0  0  # atno 4733 bound_to 1114
  -13.3795   16.4501   62.1169 LP  0  0  0  0  0  0  0  0  0  0  0  0  # atno 4734 bound_to 1114
  -11.4082   15.1805   56.2323 LP  0  0  0  0  0  0  0  0  0  0  0  0  # atno 4763 bound_to 924 
  -12.0036   15.3870   57.7388 LP  0  0  0  0  0  0  0  0  0  0  0  0  # atno 4764 bound_to 924 
  -20.1537   13.0761   62.8723 LP  0  0  0  0  0  0  0  0  0  0  0  0  # atno 4771 bound_to 1244
  -21.0588   12.5183   64.1117 LP  0  0  0  0  0  0  0  0  0  0  0  0  # atno 4772 bound_to 1244
   -6.1054   23.0336   71.3981 LP  0  0  0  0  0  0  0  0  0  0  0  0  # atno 4775 bound_to 178 
   -7.5081   22.4547   72.0013 LP  0  0  0  0  0  0  0  0  0  0  0  0  # atno 4776 bound_to 178 
   -3.5660   24.2873   72.0272 LP  0  0  0  0  0  0  0  0  0  0  0  0  # atno 4779 bound_to 171 
   -2.2200   24.8404   72.7682 LP  0  0  0  0  0  0  0  0  0  0  0  0  # atno 4780 bound_to 171 
   -7.7977   26.8519   63.7065 LP  0  0  0  0  0  0  0  0  0  0  0  0  # atno 4783 bound_to 185 
   -8.7861   25.5593   63.8438 LP  0  0  0  0  0  0  0  0  0  0  0  0  # atno 4784 bound_to 185 
   -3.4905   17.1286   72.6259 LP  0  0  0  0  0  0  0  0  0  0  0  0  # atno 4785 bound_to 346 
   -1.8684   17.2242   72.7883 LP  0  0  0  0  0  0  0  0  0  0  0  0  # atno 4786 bound_to 346 
   -3.1343   20.4650   75.2144 LP  0  0  0  0  0  0  0  0  0  0  0  0  # atno 4787 bound_to 339 
   -2.7172   22.0216   75.4784 LP  0  0  0  0  0  0  0  0  0  0  0  0  # atno 4788 bound_to 339 
   -6.6997   29.1286   65.2513 LP  0  0  0  0  0  0  0  0  0  0  0  0  # atno 4797 bound_to 154 
   -8.1342   29.8623   64.9852 LP  0  0  0  0  0  0  0  0  0  0  0  0  # atno 4798 bound_to 154 

> <Gold.Score>
     Score     S(PLP)   S(hbond)     S(cho)   S(metal)  DE(clash)   DE(tors)     intcor
     40.41     -36.51       1.80       0.00       0.00       0.00       0.75       0.00

> <Gold.PLP.Fitness>
40.4084

> <Gold.PLP.PLP>
-36.5080

> <Gold.PLP.part.hbond>
-2.0000

> <Gold.PLP.part.metal>
0.0000

> <Gold.PLP.part.buried>
-5.8213

> <Gold.PLP.part.nonpolar>
-30.5348

> <Gold.PLP.part.repulsive>
0.3341

> <Gold.PLP.ligand.clash>
0.0000

> <Gold.PLP.ligand.torsion>
0.7498

> <Gold.PLP.Chemscore.Hbond>
1.8000

> <Gold.PLP.Chemscore.CHOScore>
0.0000

> <Gold.PLP.Chemscore.Metal>
0.0000

> <Gold.Chemscore.Hbonds>
donor molecule, donor type, donor heavy atom, donor atom, acceptor molecule, acceptor atom, score
      L1  H     3    17       P1  1266  1.00
      P1  H   414  3372       L1     9  0.80

> <Gold.PLP.Chemscore.Internal.Correction>
0.0000

