#       Name:                unknown
#       Creating user name   williammccorkindale
#       Creation time:       Tue Jun  7 14:55:41 2022


#       File generated by GOLD software.
#

@<TRIPOS>MOLECULE
unknown|prepared_Mpro-x0395|mol2|1|dock2
    29    30     1
SMALL
NO_CHARGES


@<TRIPOS>ATOM
      1 C1         -12.5997  12.5517  64.9370 C.3            1 RES1               0.0000
      2 C2         -12.2276  12.9960  66.3286 C.2            1 RES1               0.0000
      3 N3         -12.2704  12.2984  67.4589 N.2            1 RES1               0.0000
      4 N4         -11.9195  12.8302  68.5456 N.2            1 RES1               0.0000
      5 C5         -11.5040  14.0922  68.5716 C.2            1 RES1               0.0000
      6 C6         -11.0435  14.9381  69.7026 C.3            1 RES1               0.0000
      7 N7         -12.0723  15.2636  70.6267 N.3            1 RES1               0.0000
      8 C8         -11.4971  15.9481  71.7661 C.3            1 RES1               0.0000
      9 C9         -12.0067  15.3927  73.0906 C.3            1 RES1               0.0000
     10 C10        -13.4939  15.3876  72.9869 C.2            1 RES1               0.0000
     11 C11        -13.9917  14.7658  71.9096 C.2            1 RES1               0.0000
     12 F12        -15.3006  14.6618  71.6512 F              1 RES1               0.0000
     13 C13        -12.9308  14.1852  71.0004 C.3            1 RES1               0.0000
     14 S14        -11.6442  14.4982  66.9031 S.3            1 RES1               0.0000
     15 H15        -11.7974  11.9636  64.4915 H              1 RES1               0.0000
     16 H16        -12.7423  13.4772  64.3479 H              1 RES1               0.0000
     17 H17        -13.5634  12.0082  65.0459 H              1 RES1               0.0000
     18 H18        -10.6036  15.8788  69.3219 H              1 RES1               0.0000
     19 H19        -10.2151  14.3961  70.2118 H              1 RES1               0.0000
     20 H20        -10.3958  15.8715  71.7233 H              1 RES1               0.0000
     21 H21        -11.8548  16.9974  71.7248 H              1 RES1               0.0000
     22 H22        -11.6321  14.3655  73.2749 H              1 RES1               0.0000
     23 H23        -11.6350  16.0641  73.8827 H              1 RES1               0.0000
     24 H24        -14.1585  15.8354  73.6975 H              1 RES1               0.0000
     25 H25        -12.4526  13.3853  71.5754 H              1 RES1               0.0000
     26 H26        -13.4440  13.7483  70.1388 H              1 RES1               0.0000
     27 ****       -12.5821  11.3483  67.4467 LP             1 RES1               0.0000
     28 ****       -11.9539  12.3002  69.3929 LP             1 RES1               0.0000
     29 ****       -12.6982  15.8792  70.1479 LP             1 RES1               0.0000
@<TRIPOS>BOND
    1    1    2 1     
    2    2    3 2     
    3    3    4 1     
    4    4    5 2     
    5    5    6 1     
    6    6    7 1     
    7    7    8 1     
    8    8    9 1     
    9    9   10 1     
   10   10   11 2     
   11   11   12 1     
   12   11   13 1     
   13    5   14 1     
   14   14    2 1     
   15   13    7 1     
   16    1   15 1     
   17    1   16 1     
   18    1   17 1     
   19    6   18 1     
   20    6   19 1     
   21    8   20 1     
   22    8   21 1     
   23    9   22 1     
   24    9   23 1     
   25   10   24 1     
   26   13   25 1     
   27   13   26 1     
   28    3   27 1     
   29    4   28 1     
   30    7   29 1     
@<TRIPOS>SUBSTRUCTURE
      1 RES1           1
@<TRIPOS>SET
LONE_PAIRS      STATIC     ATOMS    <user>   **** ""
3 27 28 29
ATOM$BLUE        STATIC     ATOMS    COLORGROUP SYSTEM
3 27 28 29
@<TRIPOS>COMMENT
> <Gold.Version>
2022.1.0

> <Gold.Id.Protein>
6LU7|6LU7_protein|mol2

> <Gold.Protein.RotatedTorsions>
[ 3973 1471 1470 1467 ] final   10.58 input   60.00 | X-H torsion
[ 3372  414  413  411 ] final  141.84 input   60.00 | X-H torsion
[ 4268 1114 1113 1110 ] final  -45.81 input   59.99 | X-H torsion
[ 4409  924  923  921 ] final  131.59 input   59.99 | X-H torsion
[ 4183 1244 1243 1241 ] final  139.23 input   59.99 | X-H torsion
[ 3800  178  177  174 ] final  -69.07 input   60.00 | X-H torsion
[ 3793  171  170  167 ] final -123.83 input   60.00 | X-H torsion
[ 3576  185  184  181 ] final   50.50 input   60.00 | X-H torsion
[ 3523  346  345  342 ] final  -99.80 input   60.01 | X-H torsion
[ 3515  339  338  335 ] final   49.44 input   60.00 | X-H torsion
[ 3663  154  153  150 ] final -107.76 input   60.00 | X-H torsion
[ 4280 1130 1129 1126 ] final  -50.67 input   60.00 | X-H torsion

> <Gold.Protein.ActiveResidues>
 VAL20   THR21   CYS22   GLY23   THR24   THR25   THR26   LEU27   ASN28   PRO39  
 ARG40   HIS41   VAL42   CYS44   THR45   SER46   ASP48   MET49   LEU50   PRO52  
 TYR54   TYR118  ASN119  ILE136  GLY138  SER139  PHE140  LEU141  ASN142  GLY143 
 SER144  CYS145  GLY146  SER147  TYR161  HIS163  HIS164  MET165  GLU166  LEU167 
 PRO168  THR169  GLY170  VAL171  HIS172  ALA173  PHE181  PHE185  VAL186  ASP187 
 ARG188  GLN189  THR190  ALA191  GLN192  ALA193 

> <Gold.Protein.RotatedAtoms>
  -14.5619   17.0537   76.3776 H   0  0  0  0  0  0  0  0  0  0  0  0  # atno 3372 bound_to 414 
   -3.6253   21.5790   74.1725 H   0  0  0  0  0  0  0  0  0  0  0  0  # atno 3515 bound_to 339 
   -2.9034   16.7590   72.5416 H   0  0  0  0  0  0  0  0  0  0  0  0  # atno 3523 bound_to 346 
   -8.5740   26.4881   64.0142 H   0  0  0  0  0  0  0  0  0  0  0  0  # atno 3576 bound_to 185 
   -6.9227   28.5339   65.4379 H   0  0  0  0  0  0  0  0  0  0  0  0  # atno 3663 bound_to 154 
   -1.9326   24.5781   72.6954 H   0  0  0  0  0  0  0  0  0  0  0  0  # atno 3793 bound_to 171 
   -6.6267   22.4056   71.4191 H   0  0  0  0  0  0  0  0  0  0  0  0  # atno 3800 bound_to 178 
  -15.1026    8.0055   76.7970 H   0  0  0  0  0  0  0  0  0  0  0  0  # atno 3973 bound_to 1471
  -20.1911   13.0293   62.8726 H   0  0  0  0  0  0  0  0  0  0  0  0  # atno 4183 bound_to 1244
  -12.5882   16.0634   61.9888 H   0  0  0  0  0  0  0  0  0  0  0  0  # atno 4268 bound_to 1114
  -16.3830   20.2151   58.3600 H   0  0  0  0  0  0  0  0  0  0  0  0  # atno 4280 bound_to 1130
  -10.4112   14.9038   57.3684 H   0  0  0  0  0  0  0  0  0  0  0  0  # atno 4409 bound_to 924 
  -15.2141    9.0796   78.0144 LP  0  0  0  0  0  0  0  0  0  0  0  0  # atno 4696 bound_to 1471
  -15.7193    7.5417   78.2297 LP  0  0  0  0  0  0  0  0  0  0  0  0  # atno 4697 bound_to 1471
  -14.0275   18.2659   75.4325 LP  0  0  0  0  0  0  0  0  0  0  0  0  # atno 4731 bound_to 414 
  -15.5076   17.6232   75.1820 LP  0  0  0  0  0  0  0  0  0  0  0  0  # atno 4732 bound_to 414 
  -13.1756   15.1065   60.8110 LP  0  0  0  0  0  0  0  0  0  0  0  0  # atno 4733 bound_to 1114
  -14.1558   16.1722   61.5660 LP  0  0  0  0  0  0  0  0  0  0  0  0  # atno 4734 bound_to 1114
  -11.5659   15.2286   56.2687 LP  0  0  0  0  0  0  0  0  0  0  0  0  # atno 4763 bound_to 924 
  -11.8939   15.3562   57.8633 LP  0  0  0  0  0  0  0  0  0  0  0  0  # atno 4764 bound_to 924 
  -21.0576   12.5484   64.1633 LP  0  0  0  0  0  0  0  0  0  0  0  0  # atno 4771 bound_to 1244
  -20.1198   13.8820   64.2568 LP  0  0  0  0  0  0  0  0  0  0  0  0  # atno 4772 bound_to 1244
   -7.6724   23.1314   72.4329 LP  0  0  0  0  0  0  0  0  0  0  0  0  # atno 4775 bound_to 178 
   -6.3182   23.9101   71.9572 LP  0  0  0  0  0  0  0  0  0  0  0  0  # atno 4776 bound_to 178 
   -2.5386   23.3701   71.7890 LP  0  0  0  0  0  0  0  0  0  0  0  0  # atno 4779 bound_to 171 
   -3.4956   24.6127   72.2439 LP  0  0  0  0  0  0  0  0  0  0  0  0  # atno 4780 bound_to 171 
   -8.1990   25.0402   63.3730 LP  0  0  0  0  0  0  0  0  0  0  0  0  # atno 4783 bound_to 185 
   -7.1740   26.3004   63.2063 LP  0  0  0  0  0  0  0  0  0  0  0  0  # atno 4784 bound_to 185 
   -1.8310   17.8822   73.0281 LP  0  0  0  0  0  0  0  0  0  0  0  0  # atno 4785 bound_to 346 
   -3.4282   18.2217   73.0244 LP  0  0  0  0  0  0  0  0  0  0  0  0  # atno 4786 bound_to 346 
   -3.1075   20.4780   75.2530 LP  0  0  0  0  0  0  0  0  0  0  0  0  # atno 4787 bound_to 339 
   -2.7321   22.0554   75.4466 LP  0  0  0  0  0  0  0  0  0  0  0  0  # atno 4788 bound_to 339 
   -7.4819   29.9856   64.9606 LP  0  0  0  0  0  0  0  0  0  0  0  0  # atno 4797 bound_to 154 
   -8.5265   28.7830   65.3200 LP  0  0  0  0  0  0  0  0  0  0  0  0  # atno 4798 bound_to 154 

> <Gold.Score>
     Score     S(PLP)   S(hbond)     S(cho)   S(metal)  DE(clash)   DE(tors)     intcor
     43.89     -42.88       0.42       0.00       0.00       0.00       0.13       0.02

> <Gold.PLP.Fitness>
43.8910

> <Gold.PLP.PLP>
-42.8763

> <Gold.PLP.part.hbond>
-1.0000

> <Gold.PLP.part.metal>
0.0000

> <Gold.PLP.part.buried>
-5.7013

> <Gold.PLP.part.nonpolar>
-37.5941

> <Gold.PLP.part.repulsive>
0.3322

> <Gold.PLP.ligand.clash>
0.0000

> <Gold.PLP.ligand.torsion>
0.1346

> <Gold.PLP.Chemscore.Hbond>
0.4212

> <Gold.PLP.Chemscore.CHOScore>
0.0000

> <Gold.PLP.Chemscore.Metal>
0.0000

> <Gold.Chemscore.Hbonds>
donor molecule, donor type, donor heavy atom, donor atom, acceptor molecule, acceptor atom, score
      P1  H  1281  4132       L1     3  0.42

> <Gold.PLP.Chemscore.Internal.Correction>
0.0204

