#       Name:                /Users/williammccorkindale/ml_physics/smi2wyck/notebooks/docking/mpro_fragments/prepared_Mpro-x0540.mol2
#       Creating user name   williammccorkindale
#       Creation time:       Tue Jun  7 14:55:42 2022


#       File generated by GOLD software.
#

@<TRIPOS>MOLECULE
/Users/williammccorkindale/ml_physics/smi2wyck/notebooks/docking/mpro_fragments/prepared_Mpro-x0540.mol2
    42    43     1
SMALL
NO_CHARGES


@<TRIPOS>ATOM
      1 O1           0.2911  -0.6886  -0.9103 O.2            1 RES1               0.0000
      2 C2          -0.2360   0.2404  -0.2674 C.2            1 RES1               0.0000
      3 N3           0.6187   1.2655   0.2297 N.am           1 RES1               0.0000
      4 C4           2.0259   1.2282  -0.0010 C.3            1 RES1               0.0000
      5 C5           2.7147   0.0172   0.5564 C.3            1 RES1               0.0000
      6 C6           4.1752   0.1542   0.2181 C.ar           1 RES1               0.0000
      7 C7           4.6655  -0.3656  -0.9761 C.ar           1 RES1               0.0000
      8 C8           5.9974  -0.2585  -1.3187 C.ar           1 RES1               0.0000
      9 N9           6.7977   0.3736  -0.4403 N.ar           1 RES1               0.0000
     10 C10          6.3916   0.8889   0.7106 C.ar           1 RES1               0.0000
     11 C11          5.0611   0.7861   1.0609 C.ar           1 RES1               0.0000
     12 N12         -1.6324   0.2139  -0.0770 N.am           1 RES1               0.0000
     13 C13         -2.4739  -0.8648  -0.6087 C.3            1 RES1               0.0000
     14 C14         -3.0907  -1.5755   0.5634 C.3            1 RES1               0.0000
     15 C15         -3.9417  -0.6632   1.4082 C.3            1 RES1               0.0000
     16 C16         -4.7975   0.2670   0.6164 C.3            1 RES1               0.0000
     17 C17         -4.9006  -0.2468  -0.7944 C.3            1 RES1               0.0000
     18 C18         -3.5670  -0.3354  -1.4818 C.3            1 RES1               0.0000
     19 H19          0.1515   2.0316   0.7647 H              1 RES1               0.0000
     20 H20          2.4783   2.1174   0.4851 H              1 RES1               0.0000
     21 H21          2.2918   1.3164  -1.0863 H              1 RES1               0.0000
     22 H22          2.5805  -0.0228   1.6542 H              1 RES1               0.0000
     23 H23          2.3988  -0.9296   0.0706 H              1 RES1               0.0000
     24 H24          3.9916  -0.8723  -1.6669 H              1 RES1               0.0000
     25 H25          6.3633  -0.6728  -2.2604 H              1 RES1               0.0000
     26 H26          7.0503   1.3989   1.4141 H              1 RES1               0.0000
     27 H27          4.6730   1.1925   1.9966 H              1 RES1               0.0000
     28 H28         -2.0760   0.9829   0.4563 H              1 RES1               0.0000
     29 H29         -1.8431  -1.5976  -1.1475 H              1 RES1               0.0000
     30 H30         -2.3154  -2.0064   1.2166 H              1 RES1               0.0000
     31 H31         -3.7665  -2.3684   0.1678 H              1 RES1               0.0000
     32 H32         -3.3186  -0.1419   2.1842 H              1 RES1               0.0000
     33 H33         -4.6184  -1.3363   2.0067 H              1 RES1               0.0000
     34 H34         -5.8344   0.2957   1.0242 H              1 RES1               0.0000
     35 H35         -4.4433   1.3312   0.6570 H              1 RES1               0.0000
     36 H36         -5.4158  -1.2099  -0.7656 H              1 RES1               0.0000
     37 H37         -5.5145   0.4862  -1.3705 H              1 RES1               0.0000
     38 H38         -3.2535   0.6260  -1.9484 H              1 RES1               0.0000
     39 H39         -3.6786  -1.0575  -2.3420 H              1 RES1               0.0000
     40 ****         1.2798  -0.6949  -1.0602 LP             1 RES1               0.0000
     41 ****        -0.2748  -1.4275  -1.2760 LP             1 RES1               0.0000
     42 ****         7.7665   0.4603  -0.6726 LP             1 RES1               0.0000
@<TRIPOS>BOND
    1    1    2 2     
    2    2    3 am    
    3    3    4 1     
    4    4    5 1     
    5    5    6 1     
    6    6    7 ar    
    7    7    8 ar    
    8    8    9 ar    
    9    9   10 ar    
   10   10   11 ar    
   11    2   12 am    
   12   12   13 1     
   13   13   14 1     
   14   14   15 1     
   15   15   16 1     
   16   16   17 1     
   17   17   18 1     
   18    6   11 ar    
   19   18   13 1     
   20    3   19 1     
   21    4   20 1     
   22    4   21 1     
   23    5   22 1     
   24    5   23 1     
   25    7   24 1     
   26    8   25 1     
   27   10   26 1     
   28   11   27 1     
   29   12   28 1     
   30   13   29 1     
   31   14   30 1     
   32   14   31 1     
   33   15   32 1     
   34   15   33 1     
   35   16   34 1     
   36   16   35 1     
   37   17   36 1     
   38   17   37 1     
   39   18   38 1     
   40   18   39 1     
   41    1   40 1     
   42    1   41 1     
   43    9   42 1     
@<TRIPOS>SUBSTRUCTURE
      1 RES1           1
@<TRIPOS>SET
LONE_PAIRS      STATIC     ATOMS    <user>   **** ""
3 40 41 42
DONOR_HYDROGENS      STATIC     ATOMS    <user>   **** ""
2 19 28
ATOM$BLUE        STATIC     ATOMS    COLORGROUP SYSTEM
3 40 41 42
ATOM$RED        STATIC     ATOMS    COLORGROUP SYSTEM
2 19 28
