#       Name:                unknown
#       Creating user name   williammccorkindale
#       Creation time:       Tue Jun  7 14:55:34 2022


#       File generated by GOLD software.
#

@<TRIPOS>MOLECULE
unknown|prepared_Mpro-x0354|mol2|1|dock1
    43    44     1
SMALL
NO_CHARGES


@<TRIPOS>ATOM
      1 C1         -13.5050  13.3992  72.6936 C.3            1 RES1               0.0000
      2 N2         -13.5540  14.8012  72.4156 N.3            1 RES1               0.0000
      3 C3         -13.9623  15.0517  71.0673 C.3            1 RES1               0.0000
      4 C4         -12.8724  14.6918  70.0605 C.3            1 RES1               0.0000
      5 N5         -11.6856  15.3882  70.4687 N.am           1 RES1               0.0000
      6 C6         -11.2047  15.2280  71.8152 C.3            1 RES1               0.0000
      7 C7         -12.3618  15.5128  72.7480 C.3            1 RES1               0.0000
      8 C8         -11.0063  16.2185  69.5508 C.2            1 RES1               0.0000
      9 O9          -9.9604  16.8487  69.8639 O.2            1 RES1               0.0000
     10 C10        -11.5386  16.3544  68.1749 C.3            1 RES1               0.0000
     11 O11        -10.6173  15.7774  67.2826 O.3            1 RES1               0.0000
     12 C12        -11.0802  14.8450  66.3516 C.ar           1 RES1               0.0000
     13 C13        -10.2476  14.3069  65.3927 C.ar           1 RES1               0.0000
     14 C14        -10.7095  13.3854  64.4743 C.ar           1 RES1               0.0000
     15 C15        -12.0207  12.9529  64.4628 C.ar           1 RES1               0.0000
     16 C16        -12.5116  11.9609  63.4717 C.3            1 RES1               0.0000
     17 C17        -12.8520  13.4935  65.4243 C.ar           1 RES1               0.0000
     18 C18        -12.3903  14.4150  66.3428 C.ar           1 RES1               0.0000
     19 H19        -14.0655  12.7905  71.9301 H              1 RES1               0.0000
     20 H20        -12.4560  13.0430  72.7599 H              1 RES1               0.0000
     21 H21        -14.0657  13.2302  73.6539 H              1 RES1               0.0000
     22 H22        -14.1595  16.1274  70.9460 H              1 RES1               0.0000
     23 H23        -14.8268  14.4046  70.8421 H              1 RES1               0.0000
     24 H24        -12.7074  13.5955  70.0283 H              1 RES1               0.0000
     25 H25        -13.2626  15.0280  69.0734 H              1 RES1               0.0000
     26 H26        -10.8208  14.2094  72.0107 H              1 RES1               0.0000
     27 H27        -10.4041  15.9438  72.0218 H              1 RES1               0.0000
     28 H28        -12.5892  16.6087  72.6403 H              1 RES1               0.0000
     29 H29        -12.0156  15.3183  73.7665 H              1 RES1               0.0000
     30 H30        -11.7272  17.4255  67.9197 H              1 RES1               0.0000
     31 H31        -12.5515  15.8645  68.0875 H              1 RES1               0.0000
     32 H32         -9.2115  14.6344  65.3849 H              1 RES1               0.0000
     33 H33        -10.0427  12.9639  63.7176 H              1 RES1               0.0000
     34 H34        -12.7737  12.4898  62.5238 H              1 RES1               0.0000
     35 H35        -11.7761  11.1466  63.3005 H              1 RES1               0.0000
     36 H36        -13.4351  11.4729  63.8304 H              1 RES1               0.0000
     37 H37        -13.8854  13.1610  65.4251 H              1 RES1               0.0000
     38 H38        -13.0666  14.8302  67.0957 H              1 RES1               0.0000
     39 ****       -14.2518  15.1679  73.0309 LP             1 RES1               0.0000
     40 ****        -9.5865  16.7693  70.7879 LP             1 RES1               0.0000
     41 ****        -9.5047  17.4282  69.1882 LP             1 RES1               0.0000
     42 ****        -9.9193  15.3209  67.8344 LP             1 RES1               0.0000
     43 ****       -10.1985  16.5251  66.7674 LP             1 RES1               0.0000
@<TRIPOS>BOND
    1    1    2 1     
    2    2    3 1     
    3    3    4 1     
    4    4    5 1     
    5    5    6 1     
    6    6    7 1     
    7    5    8 am    
    8    8    9 2     
    9    8   10 1     
   10   10   11 1     
   11   11   12 1     
   12   12   13 ar    
   13   13   14 ar    
   14   14   15 ar    
   15   15   16 1     
   16   15   17 ar    
   17   17   18 ar    
   18    7    2 1     
   19   12   18 ar    
   20    1   19 1     
   21    1   20 1     
   22    1   21 1     
   23    3   22 1     
   24    3   23 1     
   25    4   24 1     
   26    4   25 1     
   27    6   26 1     
   28    6   27 1     
   29    7   28 1     
   30    7   29 1     
   31   10   30 1     
   32   10   31 1     
   33   13   32 1     
   34   14   33 1     
   35   16   34 1     
   36   16   35 1     
   37   16   36 1     
   38   17   37 1     
   39   18   38 1     
   40    2   39 1     
   41    9   40 1     
   42    9   41 1     
   43   11   42 1     
   44   11   43 1     
@<TRIPOS>SUBSTRUCTURE
      1 RES1           1
@<TRIPOS>SET
LONE_PAIRS      STATIC     ATOMS    <user>   **** ""
5 39 40 41 42 43
ATOM$BLUE        STATIC     ATOMS    COLORGROUP SYSTEM
5 39 40 41 42 43
@<TRIPOS>COMMENT
> <Gold.Version>
2022.1.0

> <Gold.Id.Protein>
6LU7|6LU7_protein|mol2

> <Gold.Protein.RotatedTorsions>
[ 3973 1471 1470 1467 ] final   64.11 input   60.00 | X-H torsion
[ 3372  414  413  411 ] final -165.01 input   60.00 | X-H torsion
[ 4268 1114 1113 1110 ] final   93.29 input   59.99 | X-H torsion
[ 4409  924  923  921 ] final  173.16 input   59.99 | X-H torsion
[ 4183 1244 1243 1241 ] final -114.96 input   59.99 | X-H torsion
[ 3800  178  177  174 ] final  139.56 input   60.00 | X-H torsion
[ 3793  171  170  167 ] final   42.34 input   60.00 | X-H torsion
[ 3576  185  184  181 ] final -126.69 input   60.00 | X-H torsion
[ 3523  346  345  342 ] final   24.56 input   60.01 | X-H torsion
[ 3515  339  338  335 ] final   -2.48 input   60.00 | X-H torsion
[ 3663  154  153  150 ] final  109.64 input   60.00 | X-H torsion
[ 4280 1130 1129 1126 ] final -159.36 input   60.00 | X-H torsion

> <Gold.Protein.ActiveResidues>
 VAL20   THR21   CYS22   GLY23   THR24   THR25   THR26   LEU27   ASN28   PRO39  
 ARG40   HIS41   VAL42   CYS44   THR45   SER46   ASP48   MET49   LEU50   PRO52  
 TYR54   TYR118  ASN119  ILE136  GLY138  SER139  PHE140  LEU141  ASN142  GLY143 
 SER144  CYS145  GLY146  SER147  TYR161  HIS163  HIS164  MET165  GLU166  LEU167 
 PRO168  THR169  GLY170  VAL171  HIS172  ALA173  PHE181  PHE185  VAL186  ASP187 
 ARG188  GLN189  THR190  ALA191  GLN192  ALA193 

> <Gold.Protein.RotatedAtoms>
  -15.2959   16.9964   75.9782 H   0  0  0  0  0  0  0  0  0  0  0  0  # atno 3372 bound_to 414 
   -3.6154   20.7877   74.3855 H   0  0  0  0  0  0  0  0  0  0  0  0  # atno 3515 bound_to 339 
   -3.3746   18.2642   73.0464 H   0  0  0  0  0  0  0  0  0  0  0  0  # atno 3523 bound_to 346 
   -7.4215   25.3648   63.0584 H   0  0  0  0  0  0  0  0  0  0  0  0  # atno 3576 bound_to 185 
   -7.8499   29.9684   64.9601 H   0  0  0  0  0  0  0  0  0  0  0  0  # atno 3663 bound_to 154 
   -3.4846   23.9808   71.8653 H   0  0  0  0  0  0  0  0  0  0  0  0  # atno 3793 bound_to 171 
   -7.4605   23.5854   72.5166 H   0  0  0  0  0  0  0  0  0  0  0  0  # atno 3800 bound_to 178 
  -15.4332    7.3786   77.2539 H   0  0  0  0  0  0  0  0  0  0  0  0  # atno 3973 bound_to 1471
  -20.0118   13.9234   64.0554 H   0  0  0  0  0  0  0  0  0  0  0  0  # atno 4183 bound_to 1244
  -14.2137   15.9701   61.3357 H   0  0  0  0  0  0  0  0  0  0  0  0  # atno 4268 bound_to 1114
  -16.0411   18.7357   58.2656 H   0  0  0  0  0  0  0  0  0  0  0  0  # atno 4280 bound_to 1130
  -10.7568   15.0179   57.9244 H   0  0  0  0  0  0  0  0  0  0  0  0  # atno 4409 bound_to 924 
  -14.9812    8.9413   77.2096 LP  0  0  0  0  0  0  0  0  0  0  0  0  # atno 4696 bound_to 1471
  -15.6192    8.3113   78.5744 LP  0  0  0  0  0  0  0  0  0  0  0  0  # atno 4697 bound_to 1471
  -13.8582   17.7519   76.0796 LP  0  0  0  0  0  0  0  0  0  0  0  0  # atno 4731 bound_to 414 
  -14.9377   18.1948   74.9372 LP  0  0  0  0  0  0  0  0  0  0  0  0  # atno 4732 bound_to 414 
  -12.8085   16.2495   62.1073 LP  0  0  0  0  0  0  0  0  0  0  0  0  # atno 4733 bound_to 1114
  -12.8857   15.1231   60.9275 LP  0  0  0  0  0  0  0  0  0  0  0  0  # atno 4734 bound_to 1114
  -10.9258   15.0368   56.3060 LP  0  0  0  0  0  0  0  0  0  0  0  0  # atno 4763 bound_to 924 
  -12.1859   15.4331   57.2661 LP  0  0  0  0  0  0  0  0  0  0  0  0  # atno 4764 bound_to 924 
  -20.3284   12.8422   62.8812 LP  0  0  0  0  0  0  0  0  0  0  0  0  # atno 4771 bound_to 1244
  -21.0296   12.6878   64.3478 LP  0  0  0  0  0  0  0  0  0  0  0  0  # atno 4772 bound_to 1244
   -6.0839   23.5786   71.6488 LP  0  0  0  0  0  0  0  0  0  0  0  0  # atno 4775 bound_to 178 
   -7.0670   22.2747   71.6361 LP  0  0  0  0  0  0  0  0  0  0  0  0  # atno 4776 bound_to 178 
   -2.5498   24.9766   72.7497 LP  0  0  0  0  0  0  0  0  0  0  0  0  # atno 4779 bound_to 171 
   -1.9212   23.6078   72.1192 LP  0  0  0  0  0  0  0  0  0  0  0  0  # atno 4780 bound_to 171 
   -7.7298   26.8421   63.6672 LP  0  0  0  0  0  0  0  0  0  0  0  0  # atno 4783 bound_to 185 
   -8.8040   25.6298   63.8747 LP  0  0  0  0  0  0  0  0  0  0  0  0  # atno 4784 bound_to 185 
   -2.9741   16.7712   72.5379 LP  0  0  0  0  0  0  0  0  0  0  0  0  # atno 4785 bound_to 346 
   -1.8105   17.8169   73.0062 LP  0  0  0  0  0  0  0  0  0  0  0  0  # atno 4786 bound_to 346 
   -2.7194   21.0362   75.7210 LP  0  0  0  0  0  0  0  0  0  0  0  0  # atno 4787 bound_to 339 
   -3.1302   22.2941   74.7641 LP  0  0  0  0  0  0  0  0  0  0  0  0  # atno 4788 bound_to 339 
   -8.3333   28.4841   65.4196 LP  0  0  0  0  0  0  0  0  0  0  0  0  # atno 4797 bound_to 154 
   -6.7415   28.8399   65.3422 LP  0  0  0  0  0  0  0  0  0  0  0  0  # atno 4798 bound_to 154 

> <Gold.Score>
     Score     S(PLP)   S(hbond)     S(cho)   S(metal)  DE(clash)   DE(tors)     intcor
     44.92     -45.73       0.00       0.00       0.00       0.00       0.41       0.01

> <Gold.PLP.Fitness>
44.9205

> <Gold.PLP.PLP>
-45.7305

> <Gold.PLP.part.hbond>
0.0000

> <Gold.PLP.part.metal>
0.0000

> <Gold.PLP.part.buried>
-1.3142

> <Gold.PLP.part.nonpolar>
-46.7259

> <Gold.PLP.part.repulsive>
0.1831

> <Gold.PLP.ligand.clash>
0.0000

> <Gold.PLP.ligand.torsion>
0.4116

> <Gold.PLP.Chemscore.Hbond>
0.0000

> <Gold.PLP.Chemscore.CHOScore>
0.0000

> <Gold.PLP.Chemscore.Metal>
0.0000

> <Gold.PLP.Chemscore.Internal.Correction>
0.0132

