#       Name:                unknown
#       Creating user name   williammccorkindale
#       Creation time:       Tue Jun  7 14:55:38 2022


#       File generated by GOLD software.
#

@<TRIPOS>MOLECULE
unknown|prepared_Mpro-x0874|mol2|1|dock1
    28    29     1
SMALL
NO_CHARGES


@<TRIPOS>ATOM
      1 O1         -12.2705  11.0985  68.6753 O.2            1 RES1               0.0000
      2 C2         -11.6310  12.1496  68.5112 C.2            1 RES1               0.0000
      3 C3         -12.2809  13.3900  68.1540 C.3            1 RES1               0.0000
      4 C4         -12.0595  14.0007  66.8460 C.3            1 RES1               0.0000
      5 C5         -11.9515  13.0958  65.6633 C.2            1 RES1               0.0000
      6 C6         -12.8834  13.1719  64.6515 C.2            1 RES1               0.0000
      7 S7         -12.3646  12.0026  63.5224 S.3            1 RES1               0.0000
      8 C8         -10.9845  11.4423  64.3483 C.2            1 RES1               0.0000
      9 C9         -10.9694  12.1937  65.4943 C.2            1 RES1               0.0000
     10 C10        -10.8659  14.8954  67.0234 C.3            1 RES1               0.0000
     11 C11        -11.2631  15.5944  68.3315 C.3            1 RES1               0.0000
     12 C12        -11.7777  14.4493  69.1511 C.3            1 RES1               0.0000
     13 N13        -10.2237  12.1098  68.6847 N.am           1 RES1               0.0000
     14 H14        -13.4087  13.3050  68.3150 H              1 RES1               0.0000
     15 H15        -12.9374  14.7066  66.6938 H              1 RES1               0.0000
     16 H16        -13.7617  13.8415  64.5956 H              1 RES1               0.0000
     17 H17        -10.2847  10.6570  64.0147 H              1 RES1               0.0000
     18 H18        -10.1278  12.0048  66.2074 H              1 RES1               0.0000
     19 H19        -10.7248  15.6228  66.2098 H              1 RES1               0.0000
     20 H20         -9.9212  14.3415  67.1382 H              1 RES1               0.0000
     21 H21        -10.4290  16.1344  68.7810 H              1 RES1               0.0000
     22 H22        -12.1299  16.2362  68.0759 H              1 RES1               0.0000
     23 H23        -10.9407  14.0752  69.7655 H              1 RES1               0.0000
     24 H24        -12.5889  14.7499  69.8450 H              1 RES1               0.0000
     25 H25         -9.7087  11.2304  68.9442 H              1 RES1               0.0000
     26 H26         -9.6270  12.9576  68.5621 H              1 RES1               0.0000
     27 ****       -13.2639  11.0946  68.5605 LP             1 RES1               0.0000
     28 ****       -11.7923  10.2557  68.9223 LP             1 RES1               0.0000
@<TRIPOS>BOND
    1    1    2 2     
    2    2    3 1     
    3    3    4 1     
    4    4    5 1     
    5    5    6 2     
    6    6    7 1     
    7    7    8 1     
    8    8    9 2     
    9    4   10 1     
   10   10   11 1     
   11   11   12 1     
   12    2   13 am    
   13   12    3 1     
   14    9    5 1     
   15    3   14 1     
   16    4   15 1     
   17    6   16 1     
   18    8   17 1     
   19    9   18 1     
   20   10   19 1     
   21   10   20 1     
   22   11   21 1     
   23   11   22 1     
   24   12   23 1     
   25   12   24 1     
   26   13   25 1     
   27   13   26 1     
   28    1   27 1     
   29    1   28 1     
@<TRIPOS>SUBSTRUCTURE
      1 RES1           1
@<TRIPOS>SET
LONE_PAIRS      STATIC     ATOMS    <user>   **** ""
2 27 28
DONOR_HYDROGENS      STATIC     ATOMS    <user>   **** ""
2 25 26
ATOM$BLUE        STATIC     ATOMS    COLORGROUP SYSTEM
2 27 28
ATOM$RED        STATIC     ATOMS    COLORGROUP SYSTEM
2 25 26
@<TRIPOS>COMMENT
> <Gold.Version>
2022.1.0

> <Gold.Id.Protein>
6LU7|6LU7_protein|mol2

> <Gold.Protein.RotatedTorsions>
[ 3973 1471 1470 1467 ] final  -50.03 input   60.00 | X-H torsion
[ 3372  414  413  411 ] final  -75.32 input   60.00 | X-H torsion
[ 4268 1114 1113 1110 ] final -163.74 input   59.99 | X-H torsion
[ 4409  924  923  921 ] final  110.37 input   59.99 | X-H torsion
[ 4183 1244 1243 1241 ] final -127.68 input   59.99 | X-H torsion
[ 3800  178  177  174 ] final   38.95 input   60.00 | X-H torsion
[ 3793  171  170  167 ] final  152.79 input   60.00 | X-H torsion
[ 3576  185  184  181 ] final  178.99 input   60.00 | X-H torsion
[ 3523  346  345  342 ] final    9.79 input   60.01 | X-H torsion
[ 3515  339  338  335 ] final   76.21 input   60.00 | X-H torsion
[ 3663  154  153  150 ] final -121.40 input   60.00 | X-H torsion
[ 4280 1130 1129 1126 ] final  166.66 input   60.00 | X-H torsion

> <Gold.Protein.ActiveResidues>
 VAL20   THR21   CYS22   GLY23   THR24   THR25   THR26   LEU27   ASN28   PRO39  
 ARG40   HIS41   VAL42   CYS44   THR45   SER46   ASP48   MET49   LEU50   PRO52  
 TYR54   TYR118  ASN119  ILE136  GLY138  SER139  PHE140  LEU141  ASN142  GLY143 
 SER144  CYS145  GLY146  SER147  TYR161  HIS163  HIS164  MET165  GLU166  LEU167 
 PRO168  THR169  GLY170  VAL171  HIS172  ALA173  PHE181  PHE185  VAL186  ASP187 
 ARG188  GLN189  THR190  ALA191  GLN192  ALA193 

> <Gold.Protein.RotatedAtoms>
  -15.3214   17.8977   75.0134 H   0  0  0  0  0  0  0  0  0  0  0  0  # atno 3372 bound_to 414 
   -3.4782   21.9642   74.3065 H   0  0  0  0  0  0  0  0  0  0  0  0  # atno 3515 bound_to 339 
   -3.5232   18.0900   72.9720 H   0  0  0  0  0  0  0  0  0  0  0  0  # atno 3523 bound_to 346 
   -7.1553   26.1706   63.1598 H   0  0  0  0  0  0  0  0  0  0  0  0  # atno 3576 bound_to 185 
   -6.8018   28.7124   65.3838 H   0  0  0  0  0  0  0  0  0  0  0  0  # atno 3663 bound_to 154 
   -2.0255   23.5259   72.0357 H   0  0  0  0  0  0  0  0  0  0  0  0  # atno 3793 bound_to 171 
   -6.2104   23.8021   71.8339 H   0  0  0  0  0  0  0  0  0  0  0  0  # atno 3800 bound_to 178 
  -14.9728    8.8768   77.1385 H   0  0  0  0  0  0  0  0  0  0  0  0  # atno 3973 bound_to 1471
  -19.9342   13.9239   63.8630 H   0  0  0  0  0  0  0  0  0  0  0  0  # atno 4183 bound_to 1244
  -13.1434   15.1110   60.8233 H   0  0  0  0  0  0  0  0  0  0  0  0  # atno 4268 bound_to 1114
  -15.7778   18.5874   58.7215 H   0  0  0  0  0  0  0  0  0  0  0  0  # atno 4280 bound_to 1130
  -10.4026   14.8950   57.0239 H   0  0  0  0  0  0  0  0  0  0  0  0  # atno 4409 bound_to 924 
  -15.5910    8.4032   78.5673 LP  0  0  0  0  0  0  0  0  0  0  0  0  # atno 4696 bound_to 1471
  -15.4731    7.3406   77.3330 LP  0  0  0  0  0  0  0  0  0  0  0  0  # atno 4697 bound_to 1471
  -14.9026   16.9508   76.2688 LP  0  0  0  0  0  0  0  0  0  0  0  0  # atno 4731 bound_to 414 
  -13.8677   18.0883   75.7195 LP  0  0  0  0  0  0  0  0  0  0  0  0  # atno 4732 bound_to 414 
  -14.1676   16.1520   61.5413 LP  0  0  0  0  0  0  0  0  0  0  0  0  # atno 4733 bound_to 1114
  -12.6046   16.0858   62.0096 LP  0  0  0  0  0  0  0  0  0  0  0  0  # atno 4734 bound_to 1114
  -11.8580   15.3194   56.4328 LP  0  0  0  0  0  0  0  0  0  0  0  0  # atno 4763 bound_to 924 
  -11.6104   15.2743   58.0462 LP  0  0  0  0  0  0  0  0  0  0  0  0  # atno 4764 bound_to 924 
  -20.4615   12.6922   62.9396 LP  0  0  0  0  0  0  0  0  0  0  0  0  # atno 4771 bound_to 1244
  -20.9746   12.8372   64.4831 LP  0  0  0  0  0  0  0  0  0  0  0  0  # atno 4772 bound_to 1244
   -6.7915   22.3225   71.4856 LP  0  0  0  0  0  0  0  0  0  0  0  0  # atno 4775 bound_to 178 
   -7.6184   23.3127   72.4868 LP  0  0  0  0  0  0  0  0  0  0  0  0  # atno 4776 bound_to 178 
   -3.5397   24.1123   71.9302 LP  0  0  0  0  0  0  0  0  0  0  0  0  # atno 4779 bound_to 171 
   -2.4008   24.9302   72.7671 LP  0  0  0  0  0  0  0  0  0  0  0  0  # atno 4780 bound_to 171 
   -8.4855   26.5939   63.9961 LP  0  0  0  0  0  0  0  0  0  0  0  0  # atno 4783 bound_to 185 
   -8.3164   25.0665   63.4437 LP  0  0  0  0  0  0  0  0  0  0  0  0  # atno 4784 bound_to 185 
   -2.7348   16.7326   72.5429 LP  0  0  0  0  0  0  0  0  0  0  0  0  # atno 4785 bound_to 346 
   -1.9003   18.0310   73.0762 LP  0  0  0  0  0  0  0  0  0  0  0  0  # atno 4786 bound_to 346 
   -3.3453   20.4501   74.8879 LP  0  0  0  0  0  0  0  0  0  0  0  0  # atno 4787 bound_to 339 
   -2.6425   21.6953   75.6767 LP  0  0  0  0  0  0  0  0  0  0  0  0  # atno 4788 bound_to 339 
   -7.7055   29.9952   64.9525 LP  0  0  0  0  0  0  0  0  0  0  0  0  # atno 4797 bound_to 154 
   -8.4248   28.5936   65.3826 LP  0  0  0  0  0  0  0  0  0  0  0  0  # atno 4798 bound_to 154 

> <Gold.Score>
     Score     S(PLP)   S(hbond)     S(cho)   S(metal)  DE(clash)   DE(tors)     intcor
     35.06     -29.34       1.00       1.00       0.00       0.00       0.15       0.02

> <Gold.PLP.Fitness>
35.0552

> <Gold.PLP.PLP>
-29.3403

> <Gold.PLP.part.hbond>
-1.4140

> <Gold.PLP.part.metal>
0.0000

> <Gold.PLP.part.buried>
-3.5973

> <Gold.PLP.part.nonpolar>
-25.1227

> <Gold.PLP.part.repulsive>
0.1074

> <Gold.PLP.ligand.clash>
0.0000

> <Gold.PLP.ligand.torsion>
0.1535

> <Gold.PLP.Chemscore.Hbond>
1.0000

> <Gold.PLP.Chemscore.CHOScore>
1.0000

> <Gold.PLP.Chemscore.Metal>
0.0000

> <Gold.Chemscore.Hbonds>
donor molecule, donor type, donor heavy atom, donor atom, acceptor molecule, acceptor atom, score
      P1  H  1281  4132       L1     1  1.00
      L1  C     6    16       P1  1262  1.00

> <Gold.PLP.Chemscore.Internal.Correction>
0.0219

