unknown|prepared_Mpro-x0195|sdf|1|dock1
  -GOLD-   5 72214353D 1   1.00000     0.00000

 29 30  0  0  0  0  0  0  0  0  1 V2000
  -11.7605   15.9054   69.5512 C   0  0  0  0  0  0  0  0  0  0  0  0
  -12.1197   15.3005   70.8232 N   0  0  0  0  0  0  0  0  0  0  0  0
  -12.2047   16.1930   71.9602 C   0  0  0  0  0  0  0  0  0  0  0  0
  -12.8915   15.6291   73.1463 C   0  0  0  0  0  0  0  0  0  0  0  0
  -13.6968   14.3937   72.9154 C   0  0  0  0  0  0  0  0  0  0  0  0
  -13.1511   13.4381   71.9592 C   0  0  0  0  0  0  0  0  0  0  0  0
  -13.4206   12.0939   72.0985 C   0  0  0  0  0  0  0  0  0  0  0  0
  -12.8804   11.2329   71.1654 C   0  0  0  0  0  0  0  0  0  0  0  0
  -12.0901   11.6943   70.1166 C   0  0  0  0  0  0  0  0  0  0  0  0
  -11.8273   13.0401   69.9870 C   0  0  0  0  0  0  0  0  0  0  0  0
  -12.3699   13.9085   70.9251 C   0  0  0  0  0  0  0  0  0  0  0  0
  -11.4084   10.6142   68.9401 S   0  0  0  0  0  0  0  0  0  0  0  0
   -9.9040   10.8010   68.9055 O   0  0  0  0  0  0  0  0  0  0  0  0
  -11.9751   10.9241   67.6075 O   0  0  0  0  0  0  0  0  0  0  0  0
  -11.7012    8.9878   69.4261 N   0  0  0  0  0  0  0  0  0  0  0  0
  -10.6820   15.7769   69.3228 H   0  0  0  0  0  0  0  0  0  0  0  0
  -12.0208   16.9884   69.5242 H   0  0  0  0  0  0  0  0  0  0  0  0
  -12.3052   15.4413   68.6964 H   0  0  0  0  0  0  0  0  0  0  0  0
  -12.7564   17.0941   71.6171 H   0  0  0  0  0  0  0  0  0  0  0  0
  -11.1691   16.5277   72.1839 H   0  0  0  0  0  0  0  0  0  0  0  0
  -13.5564   16.3850   73.6154 H   0  0  0  0  0  0  0  0  0  0  0  0
  -12.1199   15.3899   73.9153 H   0  0  0  0  0  0  0  0  0  0  0  0
  -14.7381   14.6475   72.5873 H   0  0  0  0  0  0  0  0  0  0  0  0
  -13.8415   13.8533   73.8930 H   0  0  0  0  0  0  0  0  0  0  0  0
  -14.0343   11.7422   72.9142 H   0  0  0  0  0  0  0  0  0  0  0  0
  -13.0439   10.1631   71.2033 H   0  0  0  0  0  0  0  0  0  0  0  0
  -11.2307   13.4611   69.2082 H   0  0  0  0  0  0  0  0  0  0  0  0
  -11.7608    8.8893   70.4653 H   0  0  0  0  0  0  0  0  0  0  0  0
  -12.5353    8.5842   68.9516 H   0  0  0  0  0  0  0  0  0  0  0  0
  1  2  1  0  0  0  0
  2  3  1  0  0  0  0
  3  4  1  0  0  0  0
  4  5  1  0  0  0  0
  5  6  1  0  0  0  0
  6  7  2  0  0  0  0
  7  8  1  0  0  0  0
  8  9  2  0  0  0  0
  9 10  1  0  0  0  0
 10 11  2  0  0  0  0
  9 12  1  0  0  0  0
 12 13  2  0  0  0  0
 12 14  2  0  0  0  0
 12 15  1  0  0  0  0
 11  2  1  0  0  0  0
  6 11  1  0  0  0  0
  1 16  1  0  0  0  0
  1 17  1  0  0  0  0
  1 18  1  0  0  0  0
  3 19  1  0  0  0  0
  3 20  1  0  0  0  0
  4 21  1  0  0  0  0
  4 22  1  0  0  0  0
  5 23  1  0  0  0  0
  5 24  1  0  0  0  0
  7 25  1  0  0  0  0
  8 26  1  0  0  0  0
 10 27  1  0  0  0  0
 15 28  1  0  0  0  0
 15 29  1  0  0  0  0
M  END
> <Gold.Version>
2022.1.0

> <Gold.Id.Protein>
6LU7|6LU7_protein|mol2

> <Gold.PLP.Fitness>
51.8201

> <Gold.PLP.PLP>
-45.9474

> <Gold.PLP.part.hbond>
-2.0000

> <Gold.PLP.part.metal>
0.0000

> <Gold.PLP.part.buried>
-4.8662

> <Gold.PLP.part.nonpolar>
-40.0822

> <Gold.PLP.part.repulsive>
0.1873

> <Gold.PLP.ligand.clash>
0.0000

> <Gold.PLP.ligand.torsion>
1.1303

> <Gold.PLP.Chemscore.Hbond>
1.9920

> <Gold.PLP.Chemscore.CHOScore>
0.0000

> <Gold.PLP.Chemscore.Metal>
0.0000

> <Gold.Chemscore.Hbonds>
donor molecule, donor type, donor heavy atom, donor atom, acceptor molecule, acceptor atom, score
      L1  H    15    29       P1  1284  1.00
      P1  H  1281  4132       L1    14  0.99

> <Gold.PLP.Chemscore.Internal.Correction>
2.1572

> <Gold.Protein.RotatedTorsions>
[ 3973 1471 1470 1467 ] final   80.43 input   60.00 | X-H torsion
[ 3372  414  413  411 ] final   -1.94 input   60.00 | X-H torsion
[ 4268 1114 1113 1110 ] final -114.20 input   59.99 | X-H torsion
[ 4409  924  923  921 ] final -125.11 input   59.99 | X-H torsion
[ 4183 1244 1243 1241 ] final   76.83 input   59.99 | X-H torsion
[ 3800  178  177  174 ] final -100.12 input   60.00 | X-H torsion
[ 3793  171  170  167 ] final -153.39 input   60.00 | X-H torsion
[ 3576  185  184  181 ] final  169.56 input   60.00 | X-H torsion
[ 3523  346  345  342 ] final  -81.27 input   60.01 | X-H torsion
[ 3515  339  338  335 ] final -144.66 input   60.00 | X-H torsion
[ 3663  154  153  150 ] final -120.40 input   60.00 | X-H torsion
[ 4280 1130 1129 1126 ] final  161.42 input   60.00 | X-H torsion

> <Gold.Protein.ActiveResidues>
 VAL20   THR21   CYS22   GLY23   THR24   THR25   THR26   LEU27   ASN28   PRO39  
 ARG40   HIS41   VAL42   CYS44   THR45   SER46   ASP48   MET49   LEU50   PRO52  
 TYR54   TYR118  ASN119  ILE136  GLY138  SER139  PHE140  LEU141  ASN142  GLY143 
 SER144  CYS145  GLY146  SER147  TYR161  HIS163  HIS164  MET165  GLU166  LEU167 
 PRO168  THR169  GLY170  VAL171  HIS172  ALA173  PHE181  PHE185  VAL186  ASP187 
 ARG188  GLN189  THR190  ALA191  GLN192  ALA193 

> <Gold.Protein.RotatedAtoms>
  -14.3088   18.3438   75.1780 H   0  0  0  0  0  0  0  0  0  0  0  0  # atno 3372 bound_to 414 
   -2.6512   21.3905   75.7436 H   0  0  0  0  0  0  0  0  0  0  0  0  # atno 3515 bound_to 339 
   -3.1849   16.8655   72.5577 H   0  0  0  0  0  0  0  0  0  0  0  0  # atno 3523 bound_to 346 
   -7.1824   26.3111   63.2168 H   0  0  0  0  0  0  0  0  0  0  0  0  # atno 3576 bound_to 185 
   -6.8091   28.6985   65.3881 H   0  0  0  0  0  0  0  0  0  0  0  0  # atno 3663 bound_to 154 
   -1.7558   24.1760   72.5078 H   0  0  0  0  0  0  0  0  0  0  0  0  # atno 3793 bound_to 171 
   -7.0624   22.2817   71.6336 H   0  0  0  0  0  0  0  0  0  0  0  0  # atno 3800 bound_to 178 
  -15.5324    7.3106   77.4910 H   0  0  0  0  0  0  0  0  0  0  0  0  # atno 3973 bound_to 1471
  -20.8102   12.4186   63.3023 H   0  0  0  0  0  0  0  0  0  0  0  0  # atno 4183 bound_to 1244
  -12.5183   15.3178   61.2495 H   0  0  0  0  0  0  0  0  0  0  0  0  # atno 4268 bound_to 1114
  -15.7411   18.5924   58.7989 H   0  0  0  0  0  0  0  0  0  0  0  0  # atno 4280 bound_to 1130
  -11.6725   15.2947   58.0106 H   0  0  0  0  0  0  0  0  0  0  0  0  # atno 4409 bound_to 924 
  -14.9662    8.7595   77.0136 LP  0  0  0  0  0  0  0  0  0  0  0  0  # atno 4696 bound_to 1471
  -15.5344    8.5616   78.5317 LP  0  0  0  0  0  0  0  0  0  0  0  0  # atno 4697 bound_to 1471
  -15.5629   17.3415   75.4439 LP  0  0  0  0  0  0  0  0  0  0  0  0  # atno 4731 bound_to 414 
  -14.2271   17.2484   76.3786 LP  0  0  0  0  0  0  0  0  0  0  0  0  # atno 4732 bound_to 414 
  -14.1012   15.5907   60.9894 LP  0  0  0  0  0  0  0  0  0  0  0  0  # atno 4733 bound_to 1114
  -13.3005   16.4388   62.1323 LP  0  0  0  0  0  0  0  0  0  0  0  0  # atno 4734 bound_to 1114
  -10.3884   14.8897   57.0968 LP  0  0  0  0  0  0  0  0  0  0  0  0  # atno 4763 bound_to 924 
  -11.8010   15.3014   56.3884 LP  0  0  0  0  0  0  0  0  0  0  0  0  # atno 4764 bound_to 924 
  -20.6994   13.3100   64.6592 LP  0  0  0  0  0  0  0  0  0  0  0  0  # atno 4771 bound_to 1244
  -19.8545   13.7354   63.3281 LP  0  0  0  0  0  0  0  0  0  0  0  0  # atno 4772 bound_to 1244
   -7.4667   23.5834   72.5225 LP  0  0  0  0  0  0  0  0  0  0  0  0  # atno 4775 bound_to 178 
   -6.0852   23.5828   71.6517 LP  0  0  0  0  0  0  0  0  0  0  0  0  # atno 4776 bound_to 178 
   -3.0001   23.4859   71.7182 LP  0  0  0  0  0  0  0  0  0  0  0  0  # atno 4779 bound_to 171 
   -3.2122   24.9018   72.5036 LP  0  0  0  0  0  0  0  0  0  0  0  0  # atno 4780 bound_to 171 
   -8.5890   26.4804   64.0171 LP  0  0  0  0  0  0  0  0  0  0  0  0  # atno 4783 bound_to 185 
   -8.1856   25.0385   63.3654 LP  0  0  0  0  0  0  0  0  0  0  0  0  # atno 4784 bound_to 185 
   -1.7810   17.5992   72.9302 LP  0  0  0  0  0  0  0  0  0  0  0  0  # atno 4785 bound_to 346 
   -3.1946   18.3975   73.1061 LP  0  0  0  0  0  0  0  0  0  0  0  0  # atno 4786 bound_to 346 
   -3.3277   22.1706   74.4860 LP  0  0  0  0  0  0  0  0  0  0  0  0  # atno 4787 bound_to 339 
   -3.4930   20.5526   74.6313 LP  0  0  0  0  0  0  0  0  0  0  0  0  # atno 4788 bound_to 339 
   -7.6891   29.9962   64.9526 LP  0  0  0  0  0  0  0  0  0  0  0  0  # atno 4797 bound_to 154 
   -8.4338   28.6067   65.3782 LP  0  0  0  0  0  0  0  0  0  0  0  0  # atno 4798 bound_to 154 

$$$$
