#       Name:                /Users/williammccorkindale/ml_physics/smi2wyck/notebooks/docking/mpro_fragments/prepared_Mpro-x0426.mol2
#       Creating user name   williammccorkindale
#       Creation time:       Tue Jun  7 14:55:34 2022


#       File generated by GOLD software.
#

@<TRIPOS>MOLECULE
/Users/williammccorkindale/ml_physics/smi2wyck/notebooks/docking/mpro_fragments/prepared_Mpro-x0426.mol2
    34    35     1
SMALL
NO_CHARGES


@<TRIPOS>ATOM
      1 F1          -1.7464   0.4041  -1.3790 F              1 RES1               0.0000
      2 C2          -2.5608   0.6313  -0.3343 C.ar           1 RES1               0.0000
      3 C3          -3.7383   1.3242  -0.6583 C.ar           1 RES1               0.0000
      4 C4          -4.6878   1.6441   0.2833 C.ar           1 RES1               0.0000
      5 C5          -4.4351   1.2525   1.5764 C.ar           1 RES1               0.0000
      6 C6          -3.2822   0.5738   1.8951 C.ar           1 RES1               0.0000
      7 C7          -2.3160   0.2488   0.9341 C.ar           1 RES1               0.0000
      8 C8          -1.1196  -0.4688   1.3312 C.2            1 RES1               0.0000
      9 O9          -0.9629  -0.7962   2.5670 O.2            1 RES1               0.0000
     10 N10         -0.0630  -0.8687   0.4955 N.am           1 RES1               0.0000
     11 C11          1.0982  -1.5949   1.0319 C.3            1 RES1               0.0000
     12 C12          2.1084  -1.9289  -0.0031 C.3            1 RES1               0.0000
     13 C13          2.7071  -0.7967  -0.7120 C.ar           1 RES1               0.0000
     14 C14          2.1898  -0.3574  -1.8912 C.ar           1 RES1               0.0000
     15 C15          2.7331   0.7256  -2.5853 C.ar           1 RES1               0.0000
     16 N16          3.8017   1.3536  -2.0717 N.ar           1 RES1               0.0000
     17 C17          4.3392   0.9485  -0.9115 C.ar           1 RES1               0.0000
     18 C18          3.8171  -0.1142  -0.2166 C.ar           1 RES1               0.0000
     19 H19         -3.9507   1.6398  -1.6769 H              1 RES1               0.0000
     20 H20         -5.5956   2.1732   0.0589 H              1 RES1               0.0000
     21 H21         -5.1481   1.4760   2.3678 H              1 RES1               0.0000
     22 H22         -3.1336   0.2886   2.9320 H              1 RES1               0.0000
     23 H23         -0.0975  -0.6527  -0.5119 H              1 RES1               0.0000
     24 H24          0.7920  -2.4321   1.6570 H              1 RES1               0.0000
     25 H25          1.5808  -0.8500   1.7321 H              1 RES1               0.0000
     26 H26          2.9428  -2.4628   0.5194 H              1 RES1               0.0000
     27 H27          1.6398  -2.5984  -0.7744 H              1 RES1               0.0000
     28 H28          1.3427  -0.8184  -2.3614 H              1 RES1               0.0000
     29 H29          2.2958   1.0471  -3.5192 H              1 RES1               0.0000
     30 H30          5.2013   1.4644  -0.5089 H              1 RES1               0.0000
     31 H31          4.2479  -0.4556   0.7343 H              1 RES1               0.0000
     32 ****        -1.6618  -0.5555   3.2405 LP             1 RES1               0.0000
     33 ****        -0.1423  -1.2911   2.8530 LP             1 RES1               0.0000
     34 ****         4.2010   2.1307  -2.5582 LP             1 RES1               0.0000
@<TRIPOS>BOND
    1    1    2 1     
    2    2    3 ar    
    3    3    4 ar    
    4    4    5 ar    
    5    5    6 ar    
    6    6    7 ar    
    7    7    8 1     
    8    8    9 2     
    9    8   10 am    
   10   10   11 1     
   11   11   12 1     
   12   12   13 1     
   13   13   14 ar    
   14   14   15 ar    
   15   15   16 ar    
   16   16   17 ar    
   17   17   18 ar    
   18    2    7 ar    
   19   13   18 ar    
   20    3   19 1     
   21    4   20 1     
   22    5   21 1     
   23    6   22 1     
   24   10   23 1     
   25   11   24 1     
   26   11   25 1     
   27   12   26 1     
   28   12   27 1     
   29   14   28 1     
   30   15   29 1     
   31   17   30 1     
   32   18   31 1     
   33    9   32 1     
   34    9   33 1     
   35   16   34 1     
@<TRIPOS>SUBSTRUCTURE
      1 RES1           1
@<TRIPOS>SET
LONE_PAIRS      STATIC     ATOMS    <user>   **** ""
3 32 33 34
DONOR_HYDROGENS      STATIC     ATOMS    <user>   **** ""
1 23
ATOM$BLUE        STATIC     ATOMS    COLORGROUP SYSTEM
3 32 33 34
ATOM$RED        STATIC     ATOMS    COLORGROUP SYSTEM
1 23
