#       Name:                xxxx
#       Creating user name   williammccorkindale
#       Creation time:       Tue Jun  7 11:03:36 2022


#       File generated by GOLD software.
#

@<TRIPOS>MOLECULE
xxxx|x0072|mol2|1|dock5
    26    26     1
SMALL
NO_CHARGES


@<TRIPOS>ATOM
      1 C01        -12.5328  13.1249  65.4158 C.3            1 LIG1101            0.0000
      2 S02        -11.8802  13.0930  67.1084 S.o2           1 LIG1101            0.0000
      3 O03        -10.4144  13.1029  67.1290 O.2            1 LIG1101            0.0000
      4 O04        -12.1290  11.8129  67.7493 O.2            1 LIG1101            0.0000
      5 N05        -12.5490  14.3687  68.0194 N.pl3          1 LIG1101            0.0000
      6 C06        -11.6406  15.3809  68.4932 C.3            1 LIG1101            0.0000
      7 C07        -10.7935  14.9745  69.6910 C.3            1 LIG1101            0.0000
      8 C08        -11.7740  14.8904  70.8505 C.ar           1 LIG1101            0.0000
      9 C09        -12.6351  13.8101  70.9916 C.ar           1 LIG1101            0.0000
     10 C10        -13.4959  13.7648  72.0756 C.ar           1 LIG1101            0.0000
     11 C11        -13.4760  14.7752  73.0241 C.ar           1 LIG1101            0.0000
     12 C12        -12.6041  15.8469  72.8842 C.ar           1 LIG1101            0.0000
     13 C13        -11.7542  15.8954  71.7974 C.ar           1 LIG1101            0.0000
     14 H1         -12.1782  12.2498  64.8734 H              1 LIG1101            0.0000
     15 H2         -13.6213  13.1166  65.4462 H              1 LIG1101            0.0000
     16 H3         -12.1906  14.0277  64.9118 H              1 LIG1101            0.0000
     17 H4         -13.5431  14.4131  68.2192 H              1 LIG1101            0.0000
     18 H5         -12.2257  16.2553  68.7741 H              1 LIG1101            0.0000
     19 H6         -10.9686  15.6408  67.6766 H              1 LIG1101            0.0000
     20 H7         -10.0273  15.7223  69.8902 H              1 LIG1101            0.0000
     21 H8         -10.3216  14.0086  69.5170 H              1 LIG1101            0.0000
     22 H9         -12.6335  13.0062  70.2569 H              1 LIG1101            0.0000
     23 H10        -14.1904  12.9329  72.1831 H              1 LIG1101            0.0000
     24 H11        -14.1459  14.7286  73.8814 H              1 LIG1101            0.0000
     25 H12        -12.5907  16.6435  73.6267 H              1 LIG1101            0.0000
     26 H13        -11.0644  16.7306  71.6861 H              1 LIG1101            0.0000
@<TRIPOS>BOND
    1    1    2 1     
    2    2    3 2     
    3    2    4 2     
    4    2    5 1     
    5    5    6 1     
    6    6    7 1     
    7    7    8 1     
    8    8    9 ar    
    9    9   10 ar    
   10   10   11 ar    
   11   11   12 ar    
   12    8   13 ar    
   13   12   13 ar    
   14    1   14 1     
   15    1   15 1     
   16    1   16 1     
   17    5   17 1     
   18    6   18 1     
   19    6   19 1     
   20    7   20 1     
   21    7   21 1     
   22    9   22 1     
   23   10   23 1     
   24   11   24 1     
   25   12   25 1     
   26   13   26 1     
@<TRIPOS>SUBSTRUCTURE
      1 LIG1101        1
@<TRIPOS>SET
LONE_PAIRS      STATIC     ATOMS    <user>   **** ""
2 3 4
DONOR_HYDROGENS      STATIC     ATOMS    <user>   **** ""
1 17
ATOM$BLUE        STATIC     ATOMS    COLORGROUP SYSTEM
2 3 4
ATOM$RED        STATIC     ATOMS    COLORGROUP SYSTEM
1 17
@<TRIPOS>COMMENT
> <Gold.Version>
2022.1.0

> <Gold.Id.Protein>
6LU7|6LU7_protein|mol2

> <Gold.Protein.RotatedTorsions>
[ 3973 1471 1470 1467 ] final   90.81 input   60.00 | X-H torsion
[ 3372  414  413  411 ] final  123.92 input   60.00 | X-H torsion
[ 4268 1114 1113 1110 ] final -110.67 input   59.99 | X-H torsion
[ 4409  924  923  921 ] final  132.05 input   59.99 | X-H torsion
[ 4183 1244 1243 1241 ] final  117.44 input   59.99 | X-H torsion
[ 3800  178  177  174 ] final  -35.20 input   60.00 | X-H torsion
[ 3793  171  170  167 ] final -120.84 input   60.00 | X-H torsion
[ 3576  185  184  181 ] final  -44.42 input   60.00 | X-H torsion
[ 3523  346  345  342 ] final  149.06 input   60.01 | X-H torsion
[ 3515  339  338  335 ] final   23.12 input   60.00 | X-H torsion
[ 3663  154  153  150 ] final   -9.82 input   60.00 | X-H torsion
[ 4280 1130 1129 1126 ] final  108.59 input   60.00 | X-H torsion

> <Gold.Protein.ActiveResidues>
 VAL20   THR21   CYS22   GLY23   THR24   THR25   THR26   LEU27   ASN28   PRO39  
 ARG40   HIS41   VAL42   CYS44   THR45   SER46   ASP48   MET49   LEU50   PRO52  
 TYR54   TYR118  ASN119  ILE136  GLY138  SER139  PHE140  LEU141  ASN142  GLY143 
 SER144  CYS145  GLY146  SER147  TYR161  HIS163  HIS164  MET165  GLU166  LEU167 
 PRO168  THR169  GLY170  VAL171  HIS172  ALA173  PHE181  PHE185  VAL186  ASP187 
 ARG188  GLN189  THR190  ALA191  GLN192  ALA193 

> <Gold.Protein.RotatedAtoms>
  -14.3075   17.1959   76.3873 H   0  0  0  0  0  0  0  0  0  0  0  0  # atno 3372 bound_to 414 
   -3.6722   21.1566   74.2045 H   0  0  0  0  0  0  0  0  0  0  0  0  # atno 3515 bound_to 339 
   -1.8017   17.7468   72.9842 H   0  0  0  0  0  0  0  0  0  0  0  0  # atno 3523 bound_to 346 
   -8.5178   25.1773   63.5877 H   0  0  0  0  0  0  0  0  0  0  0  0  # atno 3576 bound_to 185 
   -8.3346   28.4953   65.4183 H   0  0  0  0  0  0  0  0  0  0  0  0  # atno 3663 bound_to 154 
   -1.9621   24.6146   72.7083 H   0  0  0  0  0  0  0  0  0  0  0  0  # atno 3793 bound_to 171 
   -6.2357   22.7804   71.3545 H   0  0  0  0  0  0  0  0  0  0  0  0  # atno 3800 bound_to 178 
  -15.5880    7.3048   77.6509 H   0  0  0  0  0  0  0  0  0  0  0  0  # atno 3973 bound_to 1471
  -20.4097   12.7545   62.9162 H   0  0  0  0  0  0  0  0  0  0  0  0  # atno 4183 bound_to 1244
  -12.4915   15.3487   61.2903 H   0  0  0  0  0  0  0  0  0  0  0  0  # atno 4268 bound_to 1114
  -15.5229   19.0276   59.4746 H   0  0  0  0  0  0  0  0  0  0  0  0  # atno 4280 bound_to 1130
  -10.4128   14.9044   57.3757 H   0  0  0  0  0  0  0  0  0  0  0  0  # atno 4409 bound_to 924 
  -14.9725    8.6198   76.9160 LP  0  0  0  0  0  0  0  0  0  0  0  0  # atno 4696 bound_to 1471
  -15.4721    8.7071   78.4682 LP  0  0  0  0  0  0  0  0  0  0  0  0  # atno 4697 bound_to 1471
  -14.2284   18.3380   75.2308 LP  0  0  0  0  0  0  0  0  0  0  0  0  # atno 4731 bound_to 414 
  -15.5630   17.4079   75.3740 LP  0  0  0  0  0  0  0  0  0  0  0  0  # atno 4732 bound_to 414 
  -14.0717   15.5510   60.9588 LP  0  0  0  0  0  0  0  0  0  0  0  0  # atno 4733 bound_to 1114
  -13.3571   16.4474   62.1218 LP  0  0  0  0  0  0  0  0  0  0  0  0  # atno 4734 bound_to 1114
  -11.5589   15.2264   56.2665 LP  0  0  0  0  0  0  0  0  0  0  0  0  # atno 4763 bound_to 924 
  -11.8993   15.3577   57.8582 LP  0  0  0  0  0  0  0  0  0  0  0  0  # atno 4764 bound_to 924 
  -21.0000   12.7747   64.4325 LP  0  0  0  0  0  0  0  0  0  0  0  0  # atno 4771 bound_to 1244
  -19.9573   13.9325   63.9437 LP  0  0  0  0  0  0  0  0  0  0  0  0  # atno 4772 bound_to 1244
   -7.6348   22.6480   72.1749 LP  0  0  0  0  0  0  0  0  0  0  0  0  # atno 4775 bound_to 178 
   -6.7496   24.0161   72.2804 LP  0  0  0  0  0  0  0  0  0  0  0  0  # atno 4776 bound_to 178 
   -2.4916   23.3703   71.8033 LP  0  0  0  0  0  0  0  0  0  0  0  0  # atno 4779 bound_to 171 
   -3.5128   24.5757   72.2165 LP  0  0  0  0  0  0  0  0  0  0  0  0  # atno 4780 bound_to 171 
   -7.1573   25.9115   63.0798 LP  0  0  0  0  0  0  0  0  0  0  0  0  # atno 4783 bound_to 185 
   -8.2724   26.7493   63.9292 LP  0  0  0  0  0  0  0  0  0  0  0  0  # atno 4784 bound_to 185 
   -3.3244   18.3149   73.0661 LP  0  0  0  0  0  0  0  0  0  0  0  0  # atno 4785 bound_to 346 
   -3.0443   16.7943   72.5407 LP  0  0  0  0  0  0  0  0  0  0  0  0  # atno 4786 bound_to 346 
   -2.8835   20.6922   75.5500 LP  0  0  0  0  0  0  0  0  0  0  0  0  # atno 4787 bound_to 339 
   -2.9089   22.2666   75.1173 LP  0  0  0  0  0  0  0  0  0  0  0  0  # atno 4788 bound_to 339 
   -6.7441   28.8317   65.3448 LP  0  0  0  0  0  0  0  0  0  0  0  0  # atno 4797 bound_to 154 
   -7.8424   29.9758   64.9556 LP  0  0  0  0  0  0  0  0  0  0  0  0  # atno 4798 bound_to 154 

> <Gold.Score>
     Score     S(PLP)   S(hbond)     S(cho)   S(metal)  DE(clash)   DE(tors)     intcor
     44.09     -38.98       1.98       0.00       0.00       0.00       0.92       1.03

> <Gold.PLP.Fitness>
44.0946

> <Gold.PLP.PLP>
-38.9813

> <Gold.PLP.part.hbond>
-2.0000

> <Gold.PLP.part.metal>
0.0000

> <Gold.PLP.part.buried>
-5.1733

> <Gold.PLP.part.nonpolar>
-33.0615

> <Gold.PLP.part.repulsive>
0.1949

> <Gold.PLP.ligand.clash>
0.0000

> <Gold.PLP.ligand.torsion>
0.9201

> <Gold.PLP.Chemscore.Hbond>
1.9753

> <Gold.PLP.Chemscore.CHOScore>
0.0000

> <Gold.PLP.Chemscore.Metal>
0.0000

> <Gold.Chemscore.Hbonds>
donor molecule, donor type, donor heavy atom, donor atom, acceptor molecule, acceptor atom, score
      L1  H     5    17       P1  1266  0.99
      P1  H  1281  4132       L1     4  0.98

> <Gold.PLP.Chemscore.Internal.Correction>
1.0275

