#       Name:                /Users/williammccorkindale/ml_physics/smi2wyck/notebooks/docking/mpro_fragments/prepared_Mpro-x0104.mol2
#       Creating user name   williammccorkindale
#       Creation time:       Tue Jun  7 14:55:35 2022


#       File generated by GOLD software.
#

@<TRIPOS>MOLECULE
/Users/williammccorkindale/ml_physics/smi2wyck/notebooks/docking/mpro_fragments/prepared_Mpro-x0104.mol2
    31    32     1
SMALL
NO_CHARGES


@<TRIPOS>ATOM
      1 C1           4.9340   1.6036  -0.1469 C.3            1 RES1               0.0000
      2 C2           3.6659   1.0873   0.4385 C.2            1 RES1               0.0000
      3 O3           3.4019   1.1745   1.6535 O.2            1 RES1               0.0000
      4 N4           2.6886   0.4616  -0.3892 N.am           1 RES1               0.0000
      5 C5           1.4561  -0.0404   0.1825 C.3            1 RES1               0.0000
      6 C6           0.6345  -0.6403  -0.9321 C.3            1 RES1               0.0000
      7 C7          -0.6510  -1.1850  -0.4557 C.2            1 RES1               0.0000
      8 C8          -1.0409  -2.4891  -0.2442 C.2            1 RES1               0.0000
      9 N9          -2.3073  -2.4979   0.1935 N.pl3          1 RES1               0.0000
     10 C10         -2.7909  -1.2254   0.2857 C.ar           1 RES1               0.0000
     11 C11         -4.0117  -0.7242   0.6779 C.ar           1 RES1               0.0000
     12 C12         -4.1889   0.6430   0.6579 C.ar           1 RES1               0.0000
     13 C13         -3.1893   1.5070   0.2614 C.ar           1 RES1               0.0000
     14 F14         -3.4132   2.8359   0.2595 F              1 RES1               0.0000
     15 C15         -1.9876   0.9591  -0.1210 C.ar           1 RES1               0.0000
     16 C16         -1.7426  -0.4128  -0.1244 C.ar           1 RES1               0.0000
     17 H17          5.4901   0.7724  -0.6191 H              1 RES1               0.0000
     18 H18          5.5238   2.0776   0.6835 H              1 RES1               0.0000
     19 H19          4.7559   2.4095  -0.8877 H              1 RES1               0.0000
     20 H20          2.8913   0.3801  -1.4075 H              1 RES1               0.0000
     21 H21          0.8711   0.7446   0.6986 H              1 RES1               0.0000
     22 H22          1.7176  -0.7951   0.9581 H              1 RES1               0.0000
     23 H23          1.1792  -1.4457  -1.4628 H              1 RES1               0.0000
     24 H24          0.4823   0.1659  -1.6892 H              1 RES1               0.0000
     25 H25         -0.4063  -3.3270  -0.4126 H              1 RES1               0.0000
     26 H26         -2.8257  -3.3617   0.4224 H              1 RES1               0.0000
     27 H27         -4.8247  -1.3493   0.9950 H              1 RES1               0.0000
     28 H28         -5.1467   1.0610   0.9657 H              1 RES1               0.0000
     29 H29         -1.1655   1.6106  -0.4424 H              1 RES1               0.0000
     30 ****         4.0543   1.6049   2.2773 LP             1 RES1               0.0000
     31 ****         2.5377   0.8141   2.0045 LP             1 RES1               0.0000
@<TRIPOS>BOND
    1    1    2 1     
    2    2    3 2     
    3    2    4 am    
    4    4    5 1     
    5    5    6 1     
    6    6    7 1     
    7    7    8 2     
    8    8    9 1     
    9    9   10 1     
   10   10   11 ar    
   11   11   12 ar    
   12   12   13 ar    
   13   13   14 1     
   14   13   15 ar    
   15   15   16 ar    
   16   16    7 1     
   17   10   16 ar    
   18    1   17 1     
   19    1   18 1     
   20    1   19 1     
   21    4   20 1     
   22    5   21 1     
   23    5   22 1     
   24    6   23 1     
   25    6   24 1     
   26    8   25 1     
   27    9   26 1     
   28   11   27 1     
   29   12   28 1     
   30   15   29 1     
   31    3   30 1     
   32    3   31 1     
@<TRIPOS>SUBSTRUCTURE
      1 RES1           1
@<TRIPOS>SET
LONE_PAIRS      STATIC     ATOMS    <user>   **** ""
2 30 31
DONOR_HYDROGENS      STATIC     ATOMS    <user>   **** ""
2 20 26
ATOM$BLUE        STATIC     ATOMS    COLORGROUP SYSTEM
2 30 31
ATOM$RED        STATIC     ATOMS    COLORGROUP SYSTEM
2 20 26
