#       Name:                unknown
#       Creating user name   williammccorkindale
#       Creation time:       Tue Jun  7 14:55:42 2022


#       File generated by GOLD software.
#

@<TRIPOS>MOLECULE
unknown|prepared_Mpro-x0387|mol2|1|dock3
    31    32     1
SMALL
NO_CHARGES


@<TRIPOS>ATOM
      1 O1         -10.0537  13.4815  64.4500 O.3            1 RES1               0.0000
      2 C2         -10.8920  14.3531  65.1416 C.3            1 RES1               0.0000
      3 C3         -10.1675  14.8048  66.3768 C.3            1 RES1               0.0000
      4 C4         -11.0559  15.0503  67.5533 C.3            1 RES1               0.0000
      5 N5         -12.0703  14.0858  67.8073 N.3            1 RES1               0.0000
      6 C6         -11.9608  13.4538  69.0846 C.3            1 RES1               0.0000
      7 C7         -12.1585  14.3886  70.2537 C.2            1 RES1               0.0000
      8 C8         -11.4029  15.4507  70.5307 C.2            1 RES1               0.0000
      9 C9         -11.7027  16.1959  71.6241 C.2            1 RES1               0.0000
     10 S10        -13.0759  15.3810  72.2704 S.3            1 RES1               0.0000
     11 C11        -13.2035  14.1293  71.1174 C.2            1 RES1               0.0000
     12 C12        -11.9657  13.0173  66.8314 C.3            1 RES1               0.0000
     13 C13        -12.1758  13.6262  65.4647 C.3            1 RES1               0.0000
     14 H14         -9.1045  13.8254  64.4253 H              1 RES1               0.0000
     15 H15        -11.1334  15.1852  64.4512 H              1 RES1               0.0000
     16 H16         -9.3766  14.0823  66.6626 H              1 RES1               0.0000
     17 H17         -9.6501  15.7534  66.1246 H              1 RES1               0.0000
     18 H18        -11.5503  16.0593  67.4243 H              1 RES1               0.0000
     19 H19        -10.4386  15.1541  68.4695 H              1 RES1               0.0000
     20 H20        -12.6617  12.6245  69.1832 H              1 RES1               0.0000
     21 H21        -10.9290  12.9970  69.1297 H              1 RES1               0.0000
     22 H22        -10.5390  15.7584  69.9055 H              1 RES1               0.0000
     23 H23        -11.2084  17.0922  72.0134 H              1 RES1               0.0000
     24 H24        -13.9507  13.3226  71.0944 H              1 RES1               0.0000
     25 H25        -10.9502  12.5684  66.8296 H              1 RES1               0.0000
     26 H26        -12.7304  12.2355  66.9585 H              1 RES1               0.0000
     27 H27        -13.0011  14.3558  65.5579 H              1 RES1               0.0000
     28 H28        -12.4009  12.8725  64.6847 H              1 RES1               0.0000
     29 ****       -10.3885  13.3829  63.5128 LP             1 RES1               0.0000
     30 ****       -10.0653  12.5903  64.9035 LP             1 RES1               0.0000
     31 ****       -12.9341  14.5877  67.7647 LP             1 RES1               0.0000
@<TRIPOS>BOND
    1    1    2 1     
    2    2    3 1     
    3    3    4 1     
    4    4    5 1     
    5    5    6 1     
    6    6    7 1     
    7    7    8 1     
    8    8    9 2     
    9    9   10 1     
   10   10   11 1     
   11    5   12 1     
   12   12   13 1     
   13   13    2 1     
   14    7   11 2     
   15    1   14 1     
   16    2   15 1     
   17    3   16 1     
   18    3   17 1     
   19    4   18 1     
   20    4   19 1     
   21    6   20 1     
   22    6   21 1     
   23    8   22 1     
   24    9   23 1     
   25   11   24 1     
   26   12   25 1     
   27   12   26 1     
   28   13   27 1     
   29   13   28 1     
   30    1   29 1     
   31    1   30 1     
   32    5   31 1     
@<TRIPOS>SUBSTRUCTURE
      1 RES1           1
@<TRIPOS>SET
LONE_PAIRS      STATIC     ATOMS    <user>   **** ""
3 29 30 31
DONOR_HYDROGENS      STATIC     ATOMS    <user>   **** ""
1 14
ATOM$BLUE        STATIC     ATOMS    COLORGROUP SYSTEM
3 29 30 31
ATOM$RED        STATIC     ATOMS    COLORGROUP SYSTEM
1 14
@<TRIPOS>COMMENT
> <Gold.Version>
2022.1.0

> <Gold.Id.Protein>
6LU7|6LU7_protein|mol2

> <Gold.Protein.RotatedTorsions>
[ 3973 1471 1470 1467 ] final   84.51 input   60.00 | X-H torsion
[ 3372  414  413  411 ] final  150.42 input   60.00 | X-H torsion
[ 4268 1114 1113 1110 ] final  -40.94 input   59.99 | X-H torsion
[ 4409  924  923  921 ] final  -46.18 input   59.99 | X-H torsion
[ 4183 1244 1243 1241 ] final    6.12 input   59.99 | X-H torsion
[ 3800  178  177  174 ] final   29.06 input   60.00 | X-H torsion
[ 3793  171  170  167 ] final   21.33 input   60.00 | X-H torsion
[ 3576  185  184  181 ] final -141.42 input   60.00 | X-H torsion
[ 3523  346  345  342 ] final   58.21 input   60.01 | X-H torsion
[ 3515  339  338  335 ] final -107.83 input   60.00 | X-H torsion
[ 3663  154  153  150 ] final -140.36 input   60.00 | X-H torsion
[ 4280 1130 1129 1126 ] final    5.09 input   60.00 | X-H torsion

> <Gold.Protein.ActiveResidues>
 VAL20   THR21   CYS22   GLY23   THR24   THR25   THR26   LEU27   ASN28   PRO39  
 ARG40   HIS41   VAL42   CYS44   THR45   SER46   ASP48   MET49   LEU50   PRO52  
 TYR54   TYR118  ASN119  ILE136  GLY138  SER139  PHE140  LEU141  ASN142  GLY143 
 SER144  CYS145  GLY146  SER147  TYR161  HIS163  HIS164  MET165  GLU166  LEU167 
 PRO168  THR169  GLY170  VAL171  HIS172  ALA173  PHE181  PHE185  VAL186  ASP187 
 ARG188  GLN189  THR190  ALA191  GLN192  ALA193 

> <Gold.Protein.RotatedAtoms>
  -14.6899   17.0054   76.3482 H   0  0  0  0  0  0  0  0  0  0  0  0  # atno 3372 bound_to 414 
   -2.8090   20.8306   75.6364 H   0  0  0  0  0  0  0  0  0  0  0  0  # atno 3515 bound_to 339 
   -2.8956   18.4882   73.1649 H   0  0  0  0  0  0  0  0  0  0  0  0  # atno 3523 bound_to 346 
   -7.2834   25.5605   63.0438 H   0  0  0  0  0  0  0  0  0  0  0  0  # atno 3576 bound_to 185 
   -6.7134   28.9946   65.2960 H   0  0  0  0  0  0  0  0  0  0  0  0  # atno 3663 bound_to 154 
   -3.5585   24.2760   72.0200 H   0  0  0  0  0  0  0  0  0  0  0  0  # atno 3793 bound_to 171 
   -6.1388   23.6948   71.7368 H   0  0  0  0  0  0  0  0  0  0  0  0  # atno 3800 bound_to 178 
  -15.5550    7.3048   77.5534 H   0  0  0  0  0  0  0  0  0  0  0  0  # atno 3973 bound_to 1471
  -21.0307   12.6807   64.3301 H   0  0  0  0  0  0  0  0  0  0  0  0  # atno 4183 bound_to 1244
  -12.6384   16.1142   62.0236 H   0  0  0  0  0  0  0  0  0  0  0  0  # atno 4268 bound_to 1114
  -16.0348   20.3670   59.1489 H   0  0  0  0  0  0  0  0  0  0  0  0  # atno 4280 bound_to 1130
  -12.1564   15.4205   56.9307 H   0  0  0  0  0  0  0  0  0  0  0  0  # atno 4409 bound_to 924 
  -14.9672    8.7065   76.9725 LP  0  0  0  0  0  0  0  0  0  0  0  0  # atno 4696 bound_to 1471
  -15.5106    8.6204   78.5100 LP  0  0  0  0  0  0  0  0  0  0  0  0  # atno 4697 bound_to 1471
  -13.9534   18.2094   75.5383 LP  0  0  0  0  0  0  0  0  0  0  0  0  # atno 4731 bound_to 414 
  -15.4527   17.7283   75.1058 LP  0  0  0  0  0  0  0  0  0  0  0  0  # atno 4732 bound_to 414 
  -13.0990   15.1036   60.8343 LP  0  0  0  0  0  0  0  0  0  0  0  0  # atno 4733 bound_to 1114
  -14.1817   16.1239   61.5077 LP  0  0  0  0  0  0  0  0  0  0  0  0  # atno 4734 bound_to 1114
  -11.0447   15.1048   58.0763 LP  0  0  0  0  0  0  0  0  0  0  0  0  # atno 4763 bound_to 924 
  -10.6574   14.9596   56.4966 LP  0  0  0  0  0  0  0  0  0  0  0  0  # atno 4764 bound_to 924 
  -20.0146   13.9256   64.0742 LP  0  0  0  0  0  0  0  0  0  0  0  0  # atno 4771 bound_to 1244
  -20.3172   12.8558   62.8781 LP  0  0  0  0  0  0  0  0  0  0  0  0  # atno 4772 bound_to 1244
   -6.9329   22.2858   71.5570 LP  0  0  0  0  0  0  0  0  0  0  0  0  # atno 4775 bound_to 178 
   -7.5491   23.4573   72.5133 LP  0  0  0  0  0  0  0  0  0  0  0  0  # atno 4776 bound_to 178 
   -2.2317   24.8475   72.7689 LP  0  0  0  0  0  0  0  0  0  0  0  0  # atno 4779 bound_to 171 
   -2.1648   23.4396   71.9443 LP  0  0  0  0  0  0  0  0  0  0  0  0  # atno 4780 bound_to 171 
   -7.9414   26.8520   63.7834 LP  0  0  0  0  0  0  0  0  0  0  0  0  # atno 4783 bound_to 185 
   -8.7314   25.4229   63.7733 LP  0  0  0  0  0  0  0  0  0  0  0  0  # atno 4784 bound_to 185 
   -3.4335   17.0581   72.6050 LP  0  0  0  0  0  0  0  0  0  0  0  0  # atno 4785 bound_to 346 
   -1.8336   17.3045   72.8199 LP  0  0  0  0  0  0  0  0  0  0  0  0  # atno 4786 bound_to 346 
   -3.0000   22.3010   74.9661 LP  0  0  0  0  0  0  0  0  0  0  0  0  # atno 4787 bound_to 339 
   -3.6617   20.9861   74.2592 LP  0  0  0  0  0  0  0  0  0  0  0  0  # atno 4788 bound_to 339 
   -8.0076   29.9249   64.9681 LP  0  0  0  0  0  0  0  0  0  0  0  0  # atno 4797 bound_to 154 
   -8.2116   28.3798   65.4555 LP  0  0  0  0  0  0  0  0  0  0  0  0  # atno 4798 bound_to 154 

> <Gold.Score>
     Score     S(PLP)   S(hbond)     S(cho)   S(metal)  DE(clash)   DE(tors)     intcor
     37.57     -34.62       0.99       0.00       0.00       0.00       0.01       0.00

> <Gold.PLP.Fitness>
37.5681

> <Gold.PLP.PLP>
-34.6154

> <Gold.PLP.part.hbond>
-1.0000

> <Gold.PLP.part.metal>
0.0000

> <Gold.PLP.part.buried>
-5.6272

> <Gold.PLP.part.nonpolar>
-28.5671

> <Gold.PLP.part.repulsive>
0.0918

> <Gold.PLP.ligand.clash>
0.0000

> <Gold.PLP.ligand.torsion>
0.0129

> <Gold.PLP.Chemscore.Hbond>
0.9920

> <Gold.PLP.Chemscore.CHOScore>
0.0000

> <Gold.PLP.Chemscore.Metal>
0.0000

> <Gold.Chemscore.Hbonds>
donor molecule, donor type, donor heavy atom, donor atom, acceptor molecule, acceptor atom, score
      L1  H     1    14       P1  1103  0.99

> <Gold.PLP.Chemscore.Internal.Correction>
0.0025

