#       Name:                /Users/williammccorkindale/ml_physics/smi2wyck/notebooks/docking/mpro_fragments/prepared_Mpro-x1077.mol2
#       Creating user name   williammccorkindale
#       Creation time:       Tue Jun  7 14:55:37 2022


#       File generated by GOLD software.
#

@<TRIPOS>MOLECULE
/Users/williammccorkindale/ml_physics/smi2wyck/notebooks/docking/mpro_fragments/prepared_Mpro-x1077.mol2
    32    33     1
SMALL
NO_CHARGES


@<TRIPOS>ATOM
      1 N1           6.2053  -0.8200  -1.4601 N.1            1 RES1               0.0000
      2 C2           5.0862  -0.6314  -1.2315 C.1            1 RES1               0.0000
      3 C3           3.6821  -0.3960  -0.9644 C.ar           1 RES1               0.0000
      4 C4           3.2747   0.3923   0.0918 C.ar           1 RES1               0.0000
      5 C5           1.9310   0.6175   0.3472 C.ar           1 RES1               0.0000
      6 C6           0.9484   0.0610  -0.4464 C.ar           1 RES1               0.0000
      7 C7           1.3929  -0.7204  -1.4919 C.ar           1 RES1               0.0000
      8 N8           2.7199  -0.9347  -1.7331 N.ar           1 RES1               0.0000
      9 N9          -0.4151   0.2921  -0.1795 N.pl3          1 RES1               0.0000
     10 C10         -0.6606   1.0970   1.0300 C.3            1 RES1               0.0000
     11 C11         -2.1191   1.2093   1.3576 C.3            1 RES1               0.0000
     12 C12         -2.8458  -0.1215   1.2396 C.3            1 RES1               0.0000
     13 O13         -2.0045  -1.1849   1.0210 O.3            1 RES1               0.0000
     14 C14         -1.9755  -1.4955  -0.3588 C.3            1 RES1               0.0000
     15 C15         -1.4399  -0.2198  -1.0243 C.3            1 RES1               0.0000
     16 H16          4.0560   0.8261   0.7112 H              1 RES1               0.0000
     17 H17          1.6333   1.2483   1.1925 H              1 RES1               0.0000
     18 H18          0.6371  -1.1643  -2.1219 H              1 RES1               0.0000
     19 H19         -0.2827   2.1126   0.7954 H              1 RES1               0.0000
     20 H20         -0.1688   0.6353   1.9096 H              1 RES1               0.0000
     21 H21         -2.5561   1.9488   0.6363 H              1 RES1               0.0000
     22 H22         -2.2168   1.5829   2.3754 H              1 RES1               0.0000
     23 H23         -3.6206  -0.1168   0.4579 H              1 RES1               0.0000
     24 H24         -3.3912  -0.3331   2.2006 H              1 RES1               0.0000
     25 H25         -1.3023  -2.3330  -0.5662 H              1 RES1               0.0000
     26 H26         -3.0183  -1.6746  -0.7022 H              1 RES1               0.0000
     27 H27         -1.2123  -0.3504  -2.0739 H              1 RES1               0.0000
     28 H28         -2.3373   0.4733  -1.0124 H              1 RES1               0.0000
     29 ****         7.1720  -0.9829  -1.6575 LP             1 RES1               0.0000
     30 ****         2.9843  -1.5109  -2.5064 LP             1 RES1               0.0000
     31 ****        -2.3323  -1.9786   1.5334 LP             1 RES1               0.0000
     32 ****        -1.0827  -0.9477   1.3276 LP             1 RES1               0.0000
@<TRIPOS>BOND
    1    1    2 3     
    2    2    3 1     
    3    3    4 ar    
    4    4    5 ar    
    5    5    6 ar    
    6    6    7 ar    
    7    7    8 ar    
    8    6    9 1     
    9    9   10 1     
   10   10   11 1     
   11   11   12 1     
   12   12   13 1     
   13   13   14 1     
   14   14   15 1     
   15    3    8 ar    
   16   15    9 1     
   17    4   16 1     
   18    5   17 1     
   19    7   18 1     
   20   10   19 1     
   21   10   20 1     
   22   11   21 1     
   23   11   22 1     
   24   12   23 1     
   25   12   24 1     
   26   14   25 1     
   27   14   26 1     
   28   15   27 1     
   29   15   28 1     
   30    1   29 1     
   31    8   30 1     
   32   13   31 1     
   33   13   32 1     
@<TRIPOS>SUBSTRUCTURE
      1 RES1           1
@<TRIPOS>SET
LONE_PAIRS      STATIC     ATOMS    <user>   **** ""
4 29 30 31 32
ATOM$BLUE        STATIC     ATOMS    COLORGROUP SYSTEM
4 29 30 31 32
