unknown|prepared_Mpro-x0967|sdf|1|dock4
  -GOLD-   5 72214353D 1   1.00000     0.00000

 35 35  0  0  0  0  0  0  0  0  1 V2000
  -12.0291   15.8982   70.0260 C   0  0  0  0  0  0  0  0  0  0  0  0
  -10.9116   16.3047   69.1315 C   0  0  0  0  0  0  0  0  0  0  0  0
   -9.8387   15.7030   69.1762 O   0  0  0  0  0  0  0  0  0  0  0  0
  -11.0866   17.3780   68.2165 N   0  0  0  0  0  0  0  0  0  0  0  0
  -10.2681   17.9086   67.2478 C   0  0  0  0  0  0  0  0  0  0  0  0
  -10.6731   17.7551   65.7878 C   0  0  0  0  0  0  0  0  0  0  0  0
  -10.8018   16.2935   65.5090 C   0  0  0  0  0  0  0  0  0  0  0  0
  -11.8998   15.8162   64.7919 C   0  0  0  0  0  0  0  0  0  0  0  0
  -12.0682   14.4738   64.5876 C   0  0  0  0  0  0  0  0  0  0  0  0
  -11.1430   13.5147   65.0897 C   0  0  0  0  0  0  0  0  0  0  0  0
  -10.0863   13.9564   65.7746 C   0  0  0  0  0  0  0  0  0  0  0  0
   -9.9279   15.3475   65.9735 C   0  0  0  0  0  0  0  0  0  0  0  0
  -11.4917   12.1892   64.7643 O   0  0  0  0  0  0  0  0  0  0  0  0
   -9.7148   19.2764   67.4364 C   0  0  0  0  0  0  0  0  0  0  0  0
  -10.3084   20.2789   67.4728 O   0  0  0  0  0  0  0  0  0  0  0  0
   -8.2347   19.1876   67.5859 N   0  0  0  0  0  0  0  0  0  0  0  0
   -7.5521   20.4253   67.7180 C   0  0  0  0  0  0  0  0  0  0  0  0
   -6.6959   20.3067   69.0350 C   0  0  0  0  0  0  0  0  0  0  0  0
   -6.0996   20.2190   69.9858 C   0  0  0  0  0  0  0  0  0  0  0  0
   -5.1238   20.0915   71.5189 Br  0  0  0  0  0  0  0  0  0  0  0  0
  -11.8078   15.0725   70.6958 H   0  0  0  0  0  0  0  0  0  0  0  0
  -12.9168   15.6241   69.3576 H   0  0  0  0  0  0  0  0  0  0  0  0
  -12.4439   16.7763   70.5929 H   0  0  0  0  0  0  0  0  0  0  0  0
  -12.0604   17.8693   68.3389 H   0  0  0  0  0  0  0  0  0  0  0  0
   -9.2801   17.2114   67.2629 H   0  0  0  0  0  0  0  0  0  0  0  0
  -11.7103   18.2215   65.6900 H   0  0  0  0  0  0  0  0  0  0  0  0
  -10.0765   18.2378   65.0404 H   0  0  0  0  0  0  0  0  0  0  0  0
  -12.5573   16.5720   64.4037 H   0  0  0  0  0  0  0  0  0  0  0  0
  -12.9530   14.1107   64.0095 H   0  0  0  0  0  0  0  0  0  0  0  0
   -9.3403   13.3141   66.2202 H   0  0  0  0  0  0  0  0  0  0  0  0
   -9.0414   15.6889   66.5176 H   0  0  0  0  0  0  0  0  0  0  0  0
  -11.7535   11.8680   63.8804 H   0  0  0  0  0  0  0  0  0  0  0  0
   -7.7208   18.3017   67.6080 H   0  0  0  0  0  0  0  0  0  0  0  0
   -6.8666   20.6511   66.9016 H   0  0  0  0  0  0  0  0  0  0  0  0
   -8.2228   21.2739   67.8565 H   0  0  0  0  0  0  0  0  0  0  0  0
  1  2  1  0  0  0  0
  2  3  2  0  0  0  0
  2  4  1  0  0  0  0
  4  5  1  0  0  0  0
  5  6  1  0  0  0  0
  6  7  1  0  0  0  0
  7  8  2  0  0  0  0
  8  9  1  0  0  0  0
  9 10  2  0  0  0  0
 10 11  1  0  0  0  0
 11 12  2  0  0  0  0
 10 13  1  0  0  0  0
  5 14  1  0  0  0  0
 14 15  2  0  0  0  0
 14 16  1  0  0  0  0
 16 17  1  0  0  0  0
 17 18  1  0  0  0  0
 18 19  3  0  0  0  0
 19 20  1  0  0  0  0
 12  7  1  0  0  0  0
  1 21  1  0  0  0  0
  1 22  1  0  0  0  0
  1 23  1  0  0  0  0
  4 24  1  0  0  0  0
  5 25  1  0  0  0  0
  6 26  1  0  0  0  0
  6 27  1  0  0  0  0
  8 28  1  0  0  0  0
  9 29  1  0  0  0  0
 11 30  1  0  0  0  0
 12 31  1  0  0  0  0
 13 32  1  0  0  0  0
 16 33  1  0  0  0  0
 17 34  1  0  0  0  0
 17 35  1  0  0  0  0
M  END
> <Gold.Version>
2022.1.0

> <Gold.Id.Protein>
6LU7|6LU7_protein|mol2

> <Gold.PLP.Fitness>
46.5201

> <Gold.PLP.PLP>
-43.9054

> <Gold.PLP.part.hbond>
-0.8732

> <Gold.PLP.part.metal>
0.0000

> <Gold.PLP.part.buried>
-8.5592

> <Gold.PLP.part.nonpolar>
-35.1140

> <Gold.PLP.part.repulsive>
0.1966

> <Gold.PLP.ligand.clash>
0.0000

> <Gold.PLP.ligand.torsion>
0.5731

> <Gold.PLP.Chemscore.Hbond>
1.0000

> <Gold.PLP.Chemscore.CHOScore>
0.0000

> <Gold.PLP.Chemscore.Metal>
0.0000

> <Gold.Chemscore.Hbonds>
donor molecule, donor type, donor heavy atom, donor atom, acceptor molecule, acceptor atom, score
      L1  H     4    24       P1   312  1.00

> <Gold.PLP.Chemscore.Internal.Correction>
0.7609

> <Gold.Protein.RotatedTorsions>
[ 3973 1471 1470 1467 ] final  160.39 input   60.00 | X-H torsion
[ 3372  414  413  411 ] final   76.77 input   60.00 | X-H torsion
[ 4268 1114 1113 1110 ] final  -89.38 input   59.99 | X-H torsion
[ 4409  924  923  921 ] final  165.93 input   59.99 | X-H torsion
[ 4183 1244 1243 1241 ] final -155.97 input   59.99 | X-H torsion
[ 3800  178  177  174 ] final -128.77 input   60.00 | X-H torsion
[ 3793  171  170  167 ] final  169.28 input   60.00 | X-H torsion
[ 3576  185  184  181 ] final  121.10 input   60.00 | X-H torsion
[ 3523  346  345  342 ] final -144.38 input   60.01 | X-H torsion
[ 3515  339  338  335 ] final  -62.96 input   60.00 | X-H torsion
[ 3663  154  153  150 ] final   47.35 input   60.00 | X-H torsion
[ 4280 1130 1129 1126 ] final  -66.09 input   60.00 | X-H torsion

> <Gold.Protein.ActiveResidues>
 VAL20   THR21   CYS22   GLY23   THR24   THR25   THR26   LEU27   ASN28   PRO39  
 ARG40   HIS41   VAL42   CYS44   THR45   SER46   ASP48   MET49   LEU50   PRO52  
 TYR54   TYR118  ASN119  ILE136  GLY138  SER139  PHE140  LEU141  ASN142  GLY143 
 SER144  CYS145  GLY146  SER147  TYR161  HIS163  HIS164  MET165  GLU166  LEU167 
 PRO168  THR169  GLY170  VAL171  HIS172  ALA173  PHE181  PHE185  VAL186  ASP187 
 ARG188  GLN189  THR190  ALA191  GLN192  ALA193 

> <Gold.Protein.RotatedAtoms>
  -13.8718   17.7313   76.0965 H   0  0  0  0  0  0  0  0  0  0  0  0  # atno 3372 bound_to 414 
   -3.1781   20.4563   75.1524 H   0  0  0  0  0  0  0  0  0  0  0  0  # atno 3515 bound_to 339 
   -2.2082   16.8697   72.6363 H   0  0  0  0  0  0  0  0  0  0  0  0  # atno 3523 bound_to 346 
   -7.6252   26.8061   63.6032 H   0  0  0  0  0  0  0  0  0  0  0  0  # atno 3576 bound_to 185 
   -8.5466   29.3233   65.1498 H   0  0  0  0  0  0  0  0  0  0  0  0  # atno 3663 bound_to 154 
   -1.8660   23.6863   72.1804 H   0  0  0  0  0  0  0  0  0  0  0  0  # atno 3793 bound_to 171 
   -7.4189   22.3879   71.9098 H   0  0  0  0  0  0  0  0  0  0  0  0  # atno 3800 bound_to 178 
  -15.6971    7.9398   78.5030 H   0  0  0  0  0  0  0  0  0  0  0  0  # atno 3973 bound_to 1471
  -19.8572   13.7926   63.4316 H   0  0  0  0  0  0  0  0  0  0  0  0  # atno 4183 bound_to 1244
  -12.3982   15.5648   61.5435 H   0  0  0  0  0  0  0  0  0  0  0  0  # atno 4268 bound_to 1114
  -16.4231   20.0397   58.1849 H   0  0  0  0  0  0  0  0  0  0  0  0  # atno 4280 bound_to 1130
  -10.6701   14.9904   57.8491 H   0  0  0  0  0  0  0  0  0  0  0  0  # atno 4409 bound_to 924 
  -15.2801    7.5902   76.9694 LP  0  0  0  0  0  0  0  0  0  0  0  0  # atno 4696 bound_to 1471
  -15.0546    9.0972   77.5566 LP  0  0  0  0  0  0  0  0  0  0  0  0  # atno 4697 bound_to 1471
  -14.9118   18.2082   74.9393 LP  0  0  0  0  0  0  0  0  0  0  0  0  # atno 4731 bound_to 414 
  -15.3182   16.9985   75.9582 LP  0  0  0  0  0  0  0  0  0  0  0  0  # atno 4732 bound_to 414 
  -13.8369   15.3354   60.8186 LP  0  0  0  0  0  0  0  0  0  0  0  0  # atno 4733 bound_to 1114
  -13.6858   16.4453   62.0069 LP  0  0  0  0  0  0  0  0  0  0  0  0  # atno 4734 bound_to 1114
  -11.0327   15.0682   56.2647 LP  0  0  0  0  0  0  0  0  0  0  0  0  # atno 4763 bound_to 924 
  -12.1662   15.4294   57.3833 LP  0  0  0  0  0  0  0  0  0  0  0  0  # atno 4764 bound_to 924 
  -20.7469   12.4487   63.2071 LP  0  0  0  0  0  0  0  0  0  0  0  0  # atno 4771 bound_to 1244
  -20.7668   13.2130   64.6501 LP  0  0  0  0  0  0  0  0  0  0  0  0  # atno 4772 bound_to 1244
   -7.1232   23.8921   72.4557 LP  0  0  0  0  0  0  0  0  0  0  0  0  # atno 4775 bound_to 178 
   -6.0696   23.1672   71.4403 LP  0  0  0  0  0  0  0  0  0  0  0  0  # atno 4776 bound_to 178 
   -3.4411   23.8843   71.8233 LP  0  0  0  0  0  0  0  0  0  0  0  0  # atno 4779 bound_to 171 
   -2.6601   24.9967   72.7283 LP  0  0  0  0  0  0  0  0  0  0  0  0  # atno 4780 bound_to 171 
   -8.8208   25.7486   63.9196 LP  0  0  0  0  0  0  0  0  0  0  0  0  # atno 4783 bound_to 185 
   -7.5079   25.2719   63.0737 LP  0  0  0  0  0  0  0  0  0  0  0  0  # atno 4784 bound_to 185 
   -2.2994   18.4014   73.1781 LP  0  0  0  0  0  0  0  0  0  0  0  0  # atno 4785 bound_to 346 
   -3.6599   17.5911   72.7791 LP  0  0  0  0  0  0  0  0  0  0  0  0  # atno 4786 bound_to 346 
   -2.6962   21.9652   75.5253 LP  0  0  0  0  0  0  0  0  0  0  0  0  # atno 4787 bound_to 339 
   -3.5938   21.6988   74.1874 LP  0  0  0  0  0  0  0  0  0  0  0  0  # atno 4788 bound_to 339 
   -7.3963   28.2336   65.5205 LP  0  0  0  0  0  0  0  0  0  0  0  0  # atno 4797 bound_to 154 
   -6.9768   29.7401   65.0503 LP  0  0  0  0  0  0  0  0  0  0  0  0  # atno 4798 bound_to 154 

$$$$
