#       Name:                unknown
#       Creating user name   williammccorkindale
#       Creation time:       Tue Jun  7 14:55:39 2022


#       File generated by GOLD software.
#

@<TRIPOS>MOLECULE
unknown|prepared_Mpro-x0991|mol2|1|dock1
    14    13     1
SMALL
NO_CHARGES


@<TRIPOS>ATOM
      1 C1         -12.2539  15.4581  73.0406 C.3            1 RES1               0.0000
      2 C2         -13.5176  14.6734  72.7859 C.3            1 RES1               0.0000
      3 C3         -13.9584  14.9044  71.4001 C.2            1 RES1               0.0000
      4 N4         -15.1553  15.3000  71.1952 N.2            1 RES1               0.0000
      5 N5         -13.0896  14.7005  70.2723 N.pl3          1 RES1               0.0000
      6 H6         -12.5320  16.4817  73.3667 H              1 RES1               0.0000
      7 H7         -11.6528  15.5677  72.0972 H              1 RES1               0.0000
      8 H8         -11.5710  14.9547  73.7599 H              1 RES1               0.0000
      9 H9         -13.3836  13.5861  72.9617 H              1 RES1               0.0000
     10 H10        -14.3317  15.0830  73.4494 H              1 RES1               0.0000
     11 H11        -15.5468  15.4857  70.2637 H              1 RES1               0.0000
     12 H12        -12.1284  14.3796  70.4869 H              1 RES1               0.0000
     13 H13        -13.4663  14.8829  69.3170 H              1 RES1               0.0000
     14 ****       -15.7472  15.4373  71.9895 LP             1 RES1               0.0000
@<TRIPOS>BOND
    1    1    2 1     
    2    2    3 1     
    3    3    4 2     
    4    3    5 1     
    5    1    6 1     
    6    1    7 1     
    7    1    8 1     
    8    2    9 1     
    9    2   10 1     
   10    4   11 1     
   11    5   12 1     
   12    5   13 1     
   13    4   14 1     
@<TRIPOS>SUBSTRUCTURE
      1 RES1           1
@<TRIPOS>SET
LONE_PAIRS      STATIC     ATOMS    <user>   **** ""
1 14
DONOR_HYDROGENS      STATIC     ATOMS    <user>   **** ""
3 11 12 13
ATOM$BLUE        STATIC     ATOMS    COLORGROUP SYSTEM
1 14
ATOM$RED        STATIC     ATOMS    COLORGROUP SYSTEM
3 11 12 13
@<TRIPOS>COMMENT
> <Gold.Version>
2022.1.0

> <Gold.Id.Protein>
6LU7|6LU7_protein|mol2

> <Gold.Protein.RotatedTorsions>
[ 3973 1471 1470 1467 ] final    6.96 input   60.00 | X-H torsion
[ 3372  414  413  411 ] final  -99.57 input   60.00 | X-H torsion
[ 4268 1114 1113 1110 ] final -112.22 input   59.99 | X-H torsion
[ 4409  924  923  921 ] final    0.89 input   59.99 | X-H torsion
[ 4183 1244 1243 1241 ] final -130.06 input   59.99 | X-H torsion
[ 3800  178  177  174 ] final   73.40 input   60.00 | X-H torsion
[ 3793  171  170  167 ] final   50.12 input   60.00 | X-H torsion
[ 3576  185  184  181 ] final  -50.20 input   60.00 | X-H torsion
[ 3523  346  345  342 ] final  111.03 input   60.01 | X-H torsion
[ 3515  339  338  335 ] final  -78.73 input   60.00 | X-H torsion
[ 3663  154  153  150 ] final  105.66 input   60.00 | X-H torsion
[ 4280 1130 1129 1126 ] final  103.95 input   60.00 | X-H torsion

> <Gold.Protein.ActiveResidues>
 VAL20   THR21   CYS22   GLY23   THR24   THR25   THR26   LEU27   ASN28   PRO39  
 ARG40   HIS41   VAL42   CYS44   THR45   SER46   ASP48   MET49   LEU50   PRO52  
 TYR54   TYR118  ASN119  ILE136  GLY138  SER139  PHE140  LEU141  ASN142  GLY143 
 SER144  CYS145  GLY146  SER147  TYR161  HIS163  HIS164  MET165  GLU166  LEU167 
 PRO168  THR169  GLY170  VAL171  HIS172  ALA173  PHE181  PHE185  VAL186  ASP187 
 ARG188  GLN189  THR190  ALA191  GLN192  ALA193 

> <Gold.Protein.RotatedAtoms>
  -15.5102   17.6078   75.2004 H   0  0  0  0  0  0  0  0  0  0  0  0  # atno 3372 bound_to 414 
   -3.0374   20.5323   75.3535 H   0  0  0  0  0  0  0  0  0  0  0  0  # atno 3515 bound_to 339 
   -2.0959   18.2566   73.1446 H   0  0  0  0  0  0  0  0  0  0  0  0  # atno 3523 bound_to 346 
   -8.4507   25.1328   63.5383 H   0  0  0  0  0  0  0  0  0  0  0  0  # atno 3576 bound_to 185 
   -7.9127   29.9522   64.9639 H   0  0  0  0  0  0  0  0  0  0  0  0  # atno 3663 bound_to 154 
   -3.4282   23.8765   71.8198 H   0  0  0  0  0  0  0  0  0  0  0  0  # atno 3793 bound_to 171 
   -6.5947   24.0085   72.1761 H   0  0  0  0  0  0  0  0  0  0  0  0  # atno 3800 bound_to 178 
  -15.0848    8.0615   76.7910 H   0  0  0  0  0  0  0  0  0  0  0  0  # atno 3973 bound_to 1471
  -19.9224   13.9198   63.8262 H   0  0  0  0  0  0  0  0  0  0  0  0  # atno 4183 bound_to 1244
  -12.5029   15.3349   61.2722 H   0  0  0  0  0  0  0  0  0  0  0  0  # atno 4268 bound_to 1114
  -15.5205   19.0923   59.5141 H   0  0  0  0  0  0  0  0  0  0  0  0  # atno 4280 bound_to 1130
  -11.7168   15.2776   56.3431 H   0  0  0  0  0  0  0  0  0  0  0  0  # atno 4409 bound_to 924 
  -15.2368    9.0609   78.0662 LP  0  0  0  0  0  0  0  0  0  0  0  0  # atno 4696 bound_to 1471
  -15.7145    7.5039   78.1840 LP  0  0  0  0  0  0  0  0  0  0  0  0  # atno 4697 bound_to 1471
  -14.5390   17.0573   76.3844 LP  0  0  0  0  0  0  0  0  0  0  0  0  # atno 4731 bound_to 414 
  -14.0411   18.2738   75.4156 LP  0  0  0  0  0  0  0  0  0  0  0  0  # atno 4732 bound_to 414 
  -14.0850   15.5684   60.9720 LP  0  0  0  0  0  0  0  0  0  0  0  0  # atno 4733 bound_to 1114
  -13.3322   16.4439   62.1267 LP  0  0  0  0  0  0  0  0  0  0  0  0  # atno 4734 bound_to 1114
  -11.7590   15.3176   57.9693 LP  0  0  0  0  0  0  0  0  0  0  0  0  # atno 4763 bound_to 924 
  -10.3858   14.8907   57.1955 LP  0  0  0  0  0  0  0  0  0  0  0  0  # atno 4764 bound_to 924 
  -20.4866   12.6664   62.9552 LP  0  0  0  0  0  0  0  0  0  0  0  0  # atno 4771 bound_to 1244
  -20.9614   12.8671   64.5047 LP  0  0  0  0  0  0  0  0  0  0  0  0  # atno 4772 bound_to 1244
   -6.3438   22.6281   71.3517 LP  0  0  0  0  0  0  0  0  0  0  0  0  # atno 4775 bound_to 178 
   -7.6791   22.7993   72.2761 LP  0  0  0  0  0  0  0  0  0  0  0  0  # atno 4776 bound_to 178 
   -2.6734   24.9983   72.7252 LP  0  0  0  0  0  0  0  0  0  0  0  0  # atno 4779 bound_to 171 
   -1.8544   23.6911   72.1895 LP  0  0  0  0  0  0  0  0  0  0  0  0  # atno 4780 bound_to 171 
   -7.1470   26.0034   63.1020 LP  0  0  0  0  0  0  0  0  0  0  0  0  # atno 4783 bound_to 185 
   -8.3503   26.7022   63.9566 LP  0  0  0  0  0  0  0  0  0  0  0  0  # atno 4784 bound_to 185 
   -3.6407   17.8277   72.8658 LP  0  0  0  0  0  0  0  0  0  0  0  0  # atno 4785 bound_to 346 
   -2.4317   16.7680   72.5796 LP  0  0  0  0  0  0  0  0  0  0  0  0  # atno 4786 bound_to 346 
   -2.7790   22.1389   75.3523 LP  0  0  0  0  0  0  0  0  0  0  0  0  # atno 4787 bound_to 339 
   -3.6527   21.4486   74.1578 LP  0  0  0  0  0  0  0  0  0  0  0  0  # atno 4788 bound_to 339 
   -8.2872   28.4401   65.4346 LP  0  0  0  0  0  0  0  0  0  0  0  0  # atno 4797 bound_to 154 
   -6.7243   28.9002   65.3234 LP  0  0  0  0  0  0  0  0  0  0  0  0  # atno 4798 bound_to 154 

> <Gold.Score>
     Score     S(PLP)   S(hbond)     S(cho)   S(metal)  DE(clash)   DE(tors)     intcor
     25.20     -20.21       1.69       0.00       0.00       0.00       0.04       0.00

> <Gold.PLP.Fitness>
25.2026

> <Gold.PLP.PLP>
-20.2073

> <Gold.PLP.part.hbond>
-2.1534

> <Gold.PLP.part.metal>
0.0000

> <Gold.PLP.part.buried>
-4.1079

> <Gold.PLP.part.nonpolar>
-14.8853

> <Gold.PLP.part.repulsive>
0.0546

> <Gold.PLP.ligand.clash>
0.0000

> <Gold.PLP.ligand.torsion>
0.0429

> <Gold.PLP.Chemscore.Hbond>
1.6936

> <Gold.PLP.Chemscore.CHOScore>
0.0000

> <Gold.PLP.Chemscore.Metal>
0.0000

> <Gold.Chemscore.Hbonds>
donor molecule, donor type, donor heavy atom, donor atom, acceptor molecule, acceptor atom, score
      L1  H     4    11       P1  1266  0.76
      L1  H     5    13       P1  1266  0.94

> <Gold.PLP.Chemscore.Internal.Correction>
0.0003

