#       Name:                unknown
#       Creating user name   williammccorkindale
#       Creation time:       Tue Jun  7 14:55:37 2022


#       File generated by GOLD software.
#

@<TRIPOS>MOLECULE
unknown|prepared_Mpro-x0305|mol2|1|dock2
    22    22     1
SMALL
NO_CHARGES


@<TRIPOS>ATOM
      1 C1         -11.7000  14.7916  67.1563 C.3            1 RES1               0.0000
      2 C2         -11.6790  14.1692  68.5270 C.3            1 RES1               0.0000
      3 N3         -12.8268  14.4579  69.3186 N.pl3          1 RES1               0.0000
      4 C4         -12.7420  14.9375  70.6499 C.ar           1 RES1               0.0000
      5 C5         -13.8335  14.9755  71.4860 C.ar           1 RES1               0.0000
      6 C6         -13.7807  15.4358  72.7828 C.ar           1 RES1               0.0000
      7 C7         -12.5780  15.8824  73.2753 C.ar           1 RES1               0.0000
      8 C8         -12.4337  16.3778  74.6129 C.1            1 RES1               0.0000
      9 N9         -12.3002  16.7853  75.6950 N.1            1 RES1               0.0000
     10 C10        -11.4924  15.8457  72.4466 C.ar           1 RES1               0.0000
     11 N11        -11.5717  15.3856  71.1679 N.ar           1 RES1               0.0000
     12 H12        -12.6875  14.7503  66.6661 H              1 RES1               0.0000
     13 H13        -11.3847  15.8544  67.1662 H              1 RES1               0.0000
     14 H14        -10.9151  14.2561  66.5543 H              1 RES1               0.0000
     15 H15        -10.7531  14.4864  69.0230 H              1 RES1               0.0000
     16 H16        -11.6432  13.0561  68.3635 H              1 RES1               0.0000
     17 H17        -13.7740  14.3150  68.9144 H              1 RES1               0.0000
     18 H18        -14.8009  14.6267  71.1202 H              1 RES1               0.0000
     19 H19        -14.6617  15.4491  73.4078 H              1 RES1               0.0000
     20 H20        -10.5188  16.1778  72.7599 H              1 RES1               0.0000
     21 ****       -12.1856  17.1354  76.6247 LP             1 RES1               0.0000
     22 ****       -10.7497  15.3780  70.5986 LP             1 RES1               0.0000
@<TRIPOS>BOND
    1    1    2 1     
    2    2    3 1     
    3    3    4 1     
    4    4    5 ar    
    5    5    6 ar    
    6    6    7 ar    
    7    7    8 1     
    8    8    9 3     
    9    7   10 ar    
   10   10   11 ar    
   11    4   11 ar    
   12    1   12 1     
   13    1   13 1     
   14    1   14 1     
   15    2   15 1     
   16    2   16 1     
   17    3   17 1     
   18    5   18 1     
   19    6   19 1     
   20   10   20 1     
   21    9   21 1     
   22   11   22 1     
@<TRIPOS>SUBSTRUCTURE
      1 RES1           1
@<TRIPOS>SET
LONE_PAIRS      STATIC     ATOMS    <user>   **** ""
2 21 22
DONOR_HYDROGENS      STATIC     ATOMS    <user>   **** ""
1 17
ATOM$BLUE        STATIC     ATOMS    COLORGROUP SYSTEM
2 21 22
ATOM$RED        STATIC     ATOMS    COLORGROUP SYSTEM
1 17
@<TRIPOS>COMMENT
> <Gold.Version>
2022.1.0

> <Gold.Id.Protein>
6LU7|6LU7_protein|mol2

> <Gold.Protein.RotatedTorsions>
[ 3973 1471 1470 1467 ] final  106.57 input   60.00 | X-H torsion
[ 3372  414  413  411 ] final   49.15 input   60.00 | X-H torsion
[ 4268 1114 1113 1110 ] final   68.33 input   59.99 | X-H torsion
[ 4409  924  923  921 ] final -171.74 input   59.99 | X-H torsion
[ 4183 1244 1243 1241 ] final   74.07 input   59.99 | X-H torsion
[ 3800  178  177  174 ] final -125.95 input   60.00 | X-H torsion
[ 3793  171  170  167 ] final   17.41 input   60.00 | X-H torsion
[ 3576  185  184  181 ] final  149.02 input   60.00 | X-H torsion
[ 3523  346  345  342 ] final  -83.79 input   60.01 | X-H torsion
[ 3515  339  338  335 ] final  162.67 input   60.00 | X-H torsion
[ 3663  154  153  150 ] final  -54.98 input   60.00 | X-H torsion
[ 4280 1130 1129 1126 ] final   86.79 input   60.00 | X-H torsion

> <Gold.Protein.ActiveResidues>
 VAL20   THR21   CYS22   GLY23   THR24   THR25   THR26   LEU27   ASN28   PRO39  
 ARG40   HIS41   VAL42   CYS44   THR45   SER46   ASP48   MET49   LEU50   PRO52  
 TYR54   TYR118  ASN119  ILE136  GLY138  SER139  PHE140  LEU141  ASN142  GLY143 
 SER144  CYS145  GLY146  SER147  TYR161  HIS163  HIS164  MET165  GLU166  LEU167 
 PRO168  THR169  GLY170  VAL171  HIS172  ALA173  PHE181  PHE185  VAL186  ASP187 
 ARG188  GLN189  THR190  ALA191  GLN192  ALA193 

> <Gold.Protein.RotatedAtoms>
  -13.8581   18.0432   75.7767 H   0  0  0  0  0  0  0  0  0  0  0  0  # atno 3372 bound_to 414 
   -2.7750   22.1206   75.3676 H   0  0  0  0  0  0  0  0  0  0  0  0  # atno 3515 bound_to 339 
   -3.1489   16.8461   72.5536 H   0  0  0  0  0  0  0  0  0  0  0  0  # atno 3523 bound_to 346 
   -7.3144   26.5777   63.3680 H   0  0  0  0  0  0  0  0  0  0  0  0  # atno 3576 bound_to 185 
   -7.6838   28.2085   65.5243 H   0  0  0  0  0  0  0  0  0  0  0  0  # atno 3663 bound_to 154 
   -3.5590   24.3310   72.0528 H   0  0  0  0  0  0  0  0  0  0  0  0  # atno 3793 bound_to 171 
   -7.3886   22.3684   71.8812 H   0  0  0  0  0  0  0  0  0  0  0  0  # atno 3800 bound_to 178 
  -15.6565    7.3523   77.8935 H   0  0  0  0  0  0  0  0  0  0  0  0  # atno 3973 bound_to 1471
  -20.8330   12.4078   63.3395 H   0  0  0  0  0  0  0  0  0  0  0  0  # atno 4183 bound_to 1244
  -14.1101   16.2251   61.6324 H   0  0  0  0  0  0  0  0  0  0  0  0  # atno 4268 bound_to 1114
  -15.5373   19.3511   59.6180 H   0  0  0  0  0  0  0  0  0  0  0  0  # atno 4280 bound_to 1130
  -10.9632   15.0821   58.0416 H   0  0  0  0  0  0  0  0  0  0  0  0  # atno 4409 bound_to 924 
  -15.0053    8.3837   76.8164 LP  0  0  0  0  0  0  0  0  0  0  0  0  # atno 4696 bound_to 1471
  -15.3703    8.8954   78.3235 LP  0  0  0  0  0  0  0  0  0  0  0  0  # atno 4697 bound_to 1471
  -15.2764   17.9482   74.9846 LP  0  0  0  0  0  0  0  0  0  0  0  0  # atno 4731 bound_to 414 
  -14.9674   16.9444   76.2350 LP  0  0  0  0  0  0  0  0  0  0  0  0  # atno 4732 bound_to 414 
  -12.5296   15.9994   61.9469 LP  0  0  0  0  0  0  0  0  0  0  0  0  # atno 4733 bound_to 1114
  -13.2689   15.1164   60.7892 LP  0  0  0  0  0  0  0  0  0  0  0  0  # atno 4734 bound_to 1114
  -10.7230   14.9782   56.4355 LP  0  0  0  0  0  0  0  0  0  0  0  0  # atno 4763 bound_to 924 
  -12.1808   15.4271   57.0186 LP  0  0  0  0  0  0  0  0  0  0  0  0  # atno 4764 bound_to 924 
  -20.6726   13.3465   64.6589 LP  0  0  0  0  0  0  0  0  0  0  0  0  # atno 4771 bound_to 1244
  -19.8582   13.7098   63.2910 LP  0  0  0  0  0  0  0  0  0  0  0  0  # atno 4772 bound_to 1244
   -7.1613   23.8689   72.4685 LP  0  0  0  0  0  0  0  0  0  0  0  0  # atno 4775 bound_to 178 
   -6.0621   23.2100   71.4564 LP  0  0  0  0  0  0  0  0  0  0  0  0  # atno 4776 bound_to 178 
   -2.1774   24.8129   72.7646 LP  0  0  0  0  0  0  0  0  0  0  0  0  # atno 4779 bound_to 171 
   -2.2186   23.4188   71.9154 LP  0  0  0  0  0  0  0  0  0  0  0  0  # atno 4780 bound_to 171 
   -8.7547   26.1880   64.0172 LP  0  0  0  0  0  0  0  0  0  0  0  0  # atno 4783 bound_to 185 
   -7.8869   25.0624   63.2130 LP  0  0  0  0  0  0  0  0  0  0  0  0  # atno 4784 bound_to 185 
   -1.7821   17.6382   72.9441 LP  0  0  0  0  0  0  0  0  0  0  0  0  # atno 4785 bound_to 346 
   -3.2299   18.3781   73.0963 LP  0  0  0  0  0  0  0  0  0  0  0  0  # atno 4786 bound_to 346 
   -3.6489   21.4715   74.1580 LP  0  0  0  0  0  0  0  0  0  0  0  0  # atno 4787 bound_to 339 
   -3.0471   20.5165   75.3380 LP  0  0  0  0  0  0  0  0  0  0  0  0  # atno 4788 bound_to 339 
   -6.8055   29.5189   65.1246 LP  0  0  0  0  0  0  0  0  0  0  0  0  # atno 4797 bound_to 154 
   -8.4365   29.5775   65.0690 LP  0  0  0  0  0  0  0  0  0  0  0  0  # atno 4798 bound_to 154 

> <Gold.Score>
     Score     S(PLP)   S(hbond)     S(cho)   S(metal)  DE(clash)   DE(tors)     intcor
     39.81     -35.75       1.41       0.00       0.00       0.00       0.08       0.00

> <Gold.PLP.Fitness>
39.8099

> <Gold.PLP.PLP>
-35.7497

> <Gold.PLP.part.hbond>
-2.0000

> <Gold.PLP.part.metal>
0.0000

> <Gold.PLP.part.buried>
-3.7643

> <Gold.PLP.part.nonpolar>
-30.9621

> <Gold.PLP.part.repulsive>
0.3413

> <Gold.PLP.ligand.clash>
0.0000

> <Gold.PLP.ligand.torsion>
0.0820

> <Gold.PLP.Chemscore.Hbond>
1.4080

> <Gold.PLP.Chemscore.CHOScore>
0.0000

> <Gold.PLP.Chemscore.Metal>
0.0000

> <Gold.Chemscore.Hbonds>
donor molecule, donor type, donor heavy atom, donor atom, acceptor molecule, acceptor atom, score
      L1  H     3    17       P1  1266  0.78
      P1  H   414  3372       L1     9  0.62

> <Gold.PLP.Chemscore.Internal.Correction>
0.0002

