unknown|prepared_Mpro-x0387|sdf|1|dock4
  -GOLD-   5 72214353D 1   1.00000     0.00000

 28 29  0  0  0  0  0  0  0  0  1 V2000
  -12.8799   16.2329   74.8014 O   0  0  0  0  0  0  0  0  0  0  0  0
  -13.1111   15.9128   73.4616 C   0  0  0  0  0  0  0  0  0  0  0  0
  -11.9946   16.3619   72.5581 C   0  0  0  0  0  0  0  0  0  0  0  0
  -11.6130   15.3521   71.5206 C   0  0  0  0  0  0  0  0  0  0  0  0
  -12.6938   14.6269   70.9497 N   0  0  0  0  0  0  0  0  0  0  0  0
  -12.1901   13.4633   70.2477 C   0  0  0  0  0  0  0  0  0  0  0  0
  -11.9416   13.7922   68.7824 C   0  0  0  0  0  0  0  0  0  0  0  0
  -11.9424   12.8852   67.8026 C   0  0  0  0  0  0  0  0  0  0  0  0
  -11.7046   13.3153   66.5255 C   0  0  0  0  0  0  0  0  0  0  0  0
  -11.4845   14.9927   66.7360 S   0  0  0  0  0  0  0  0  0  0  0  0
  -11.6991   15.0962   68.4220 C   0  0  0  0  0  0  0  0  0  0  0  0
  -13.6988   14.1961   71.8636 C   0  0  0  0  0  0  0  0  0  0  0  0
  -13.2279   14.3968   73.2915 C   0  0  0  0  0  0  0  0  0  0  0  0
  -13.7566   16.3385   75.2511 H   0  0  0  0  0  0  0  0  0  0  0  0
  -14.0515   16.3684   73.1173 H   0  0  0  0  0  0  0  0  0  0  0  0
  -12.2158   17.3550   72.0842 H   0  0  0  0  0  0  0  0  0  0  0  0
  -11.1110   16.5335   73.2101 H   0  0  0  0  0  0  0  0  0  0  0  0
  -10.9349   14.6122   72.0222 H   0  0  0  0  0  0  0  0  0  0  0  0
  -11.0829   15.8919   70.7077 H   0  0  0  0  0  0  0  0  0  0  0  0
  -12.9544   12.6528   70.3165 H   0  0  0  0  0  0  0  0  0  0  0  0
  -11.2681   13.0677   70.7045 H   0  0  0  0  0  0  0  0  0  0  0  0
  -12.1289   11.8035   67.9940 H   0  0  0  0  0  0  0  0  0  0  0  0
  -11.6700   12.7019   65.6057 H   0  0  0  0  0  0  0  0  0  0  0  0
  -11.6482   16.0017   69.0337 H   0  0  0  0  0  0  0  0  0  0  0  0
  -13.9611   13.1134   71.7569 H   0  0  0  0  0  0  0  0  0  0  0  0
  -14.6425   14.7976   71.7690 H   0  0  0  0  0  0  0  0  0  0  0  0
  -12.2240   13.9792   73.4730 H   0  0  0  0  0  0  0  0  0  0  0  0
  -13.9751   14.0145   74.0188 H   0  0  0  0  0  0  0  0  0  0  0  0
  1  2  1  0  0  0  0
  2  3  1  0  0  0  0
  3  4  1  0  0  0  0
  4  5  1  0  0  0  0
  5  6  1  0  0  0  0
  6  7  1  0  0  0  0
  7  8  1  0  0  0  0
  8  9  2  0  0  0  0
  9 10  1  0  0  0  0
 10 11  1  0  0  0  0
  5 12  1  0  0  0  0
 12 13  1  0  0  0  0
 13  2  1  0  0  0  0
  7 11  2  0  0  0  0
  1 14  1  0  0  0  0
  2 15  1  0  0  0  0
  3 16  1  0  0  0  0
  3 17  1  0  0  0  0
  4 18  1  0  0  0  0
  4 19  1  0  0  0  0
  6 20  1  0  0  0  0
  6 21  1  0  0  0  0
  8 22  1  0  0  0  0
  9 23  1  0  0  0  0
 11 24  1  0  0  0  0
 12 25  1  0  0  0  0
 12 26  1  0  0  0  0
 13 27  1  0  0  0  0
 13 28  1  0  0  0  0
M  END
> <Gold.Version>
2022.1.0

> <Gold.Id.Protein>
6LU7|6LU7_protein|mol2

> <Gold.PLP.Fitness>
42.8083

> <Gold.PLP.PLP>
-41.4579

> <Gold.PLP.part.hbond>
-2.0000

> <Gold.PLP.part.metal>
0.0000

> <Gold.PLP.part.buried>
-6.5726

> <Gold.PLP.part.nonpolar>
-33.1522

> <Gold.PLP.part.repulsive>
0.1290

> <Gold.PLP.ligand.clash>
0.0000

> <Gold.PLP.ligand.torsion>
0.8320

> <Gold.PLP.Chemscore.Hbond>
1.0000

> <Gold.PLP.Chemscore.CHOScore>
0.0000

> <Gold.PLP.Chemscore.Metal>
0.0000

> <Gold.Chemscore.Hbonds>
donor molecule, donor type, donor heavy atom, donor atom, acceptor molecule, acceptor atom, score
      L1  H     1    14       P1  1441  1.00

> <Gold.PLP.Chemscore.Internal.Correction>
0.0144

> <Gold.Protein.RotatedTorsions>
[ 3973 1471 1470 1467 ] final  138.35 input   60.00 | X-H torsion
[ 3372  414  413  411 ] final  -44.99 input   60.00 | X-H torsion
[ 4268 1114 1113 1110 ] final  -20.61 input   59.99 | X-H torsion
[ 4409  924  923  921 ] final   92.94 input   59.99 | X-H torsion
[ 4183 1244 1243 1241 ] final   98.03 input   59.99 | X-H torsion
[ 3800  178  177  174 ] final   -9.40 input   60.00 | X-H torsion
[ 3793  171  170  167 ] final  175.02 input   60.00 | X-H torsion
[ 3576  185  184  181 ] final  -21.45 input   60.00 | X-H torsion
[ 3523  346  345  342 ] final  138.03 input   60.01 | X-H torsion
[ 3515  339  338  335 ] final -118.50 input   60.00 | X-H torsion
[ 3663  154  153  150 ] final   54.27 input   60.00 | X-H torsion
[ 4280 1130 1129 1126 ] final -179.29 input   60.00 | X-H torsion

> <Gold.Protein.ActiveResidues>
 VAL20   THR21   CYS22   GLY23   THR24   THR25   THR26   LEU27   ASN28   PRO39  
 ARG40   HIS41   VAL42   CYS44   THR45   SER46   ASP48   MET49   LEU50   PRO52  
 TYR54   TYR118  ASN119  ILE136  GLY138  SER139  PHE140  LEU141  ASN142  GLY143 
 SER144  CYS145  GLY146  SER147  TYR161  HIS163  HIS164  MET165  GLU166  LEU167 
 PRO168  THR169  GLY170  VAL171  HIS172  ALA173  PHE181  PHE185  VAL186  ASP187 
 ARG188  GLN189  THR190  ALA191  GLN192  ALA193 

> <Gold.Protein.RotatedAtoms>
  -14.9366   18.1927   74.9438 H   0  0  0  0  0  0  0  0  0  0  0  0  # atno 3372 bound_to 414 
   -2.7448   20.9795   75.6997 H   0  0  0  0  0  0  0  0  0  0  0  0  # atno 3515 bound_to 339 
   -1.8494   17.9112   73.0396 H   0  0  0  0  0  0  0  0  0  0  0  0  # atno 3523 bound_to 346 
   -8.7249   25.4255   63.7734 H   0  0  0  0  0  0  0  0  0  0  0  0  # atno 3576 bound_to 185 
   -8.5111   29.4257   65.1180 H   0  0  0  0  0  0  0  0  0  0  0  0  # atno 3663 bound_to 154 
   -1.8252   23.7526   72.2326 H   0  0  0  0  0  0  0  0  0  0  0  0  # atno 3793 bound_to 171 
   -6.0783   23.1583   71.4386 H   0  0  0  0  0  0  0  0  0  0  0  0  # atno 3800 bound_to 178 
  -15.7198    7.6352   78.3164 H   0  0  0  0  0  0  0  0  0  0  0  0  # atno 3973 bound_to 1471
  -20.6111   12.5565   63.0575 H   0  0  0  0  0  0  0  0  0  0  0  0  # atno 4183 bound_to 1244
  -12.8956   16.2967   62.1224 H   0  0  0  0  0  0  0  0  0  0  0  0  # atno 4268 bound_to 1114
  -15.8833   18.6115   58.5199 H   0  0  0  0  0  0  0  0  0  0  0  0  # atno 4280 bound_to 1130
  -10.4858   14.9150   56.7534 H   0  0  0  0  0  0  0  0  0  0  0  0  # atno 4409 bound_to 924 
  -15.1447    7.8865   76.8150 LP  0  0  0  0  0  0  0  0  0  0  0  0  # atno 4696 bound_to 1471
  -15.1672    9.1077   77.8989 LP  0  0  0  0  0  0  0  0  0  0  0  0  # atno 4697 bound_to 1471
  -15.2994   16.9904   75.9786 LP  0  0  0  0  0  0  0  0  0  0  0  0  # atno 4731 bound_to 414 
  -13.8583   17.7516   76.0798 LP  0  0  0  0  0  0  0  0  0  0  0  0  # atno 4732 bound_to 414 
  -12.8015   15.1439   60.9777 LP  0  0  0  0  0  0  0  0  0  0  0  0  # atno 4733 bound_to 1114
  -14.2203   15.8997   61.2648 LP  0  0  0  0  0  0  0  0  0  0  0  0  # atno 4734 bound_to 1114
  -12.0418   15.3785   56.6435 LP  0  0  0  0  0  0  0  0  0  0  0  0  # atno 4763 bound_to 924 
  -11.3429   15.1951   58.1080 LP  0  0  0  0  0  0  0  0  0  0  0  0  # atno 4764 bound_to 924 
  -20.8826   13.0231   64.5926 LP  0  0  0  0  0  0  0  0  0  0  0  0  # atno 4771 bound_to 1244
  -19.8718   13.8834   63.6413 LP  0  0  0  0  0  0  0  0  0  0  0  0  # atno 4772 bound_to 1244
   -7.4283   22.3864   71.9179 LP  0  0  0  0  0  0  0  0  0  0  0  0  # atno 4775 bound_to 178 
   -7.1146   23.8971   72.4527 LP  0  0  0  0  0  0  0  0  0  0  0  0  # atno 4776 bound_to 178 
   -3.3911   23.8099   71.7939 LP  0  0  0  0  0  0  0  0  0  0  0  0  # atno 4779 bound_to 171 
   -2.7512   25.0043   72.7052 LP  0  0  0  0  0  0  0  0  0  0  0  0  # atno 4780 bound_to 171 
   -7.2793   25.5588   63.0383 LP  0  0  0  0  0  0  0  0  0  0  0  0  # atno 4783 bound_to 185 
   -7.9419   26.8520   63.7836 LP  0  0  0  0  0  0  0  0  0  0  0  0  # atno 4784 bound_to 185 
   -3.4512   18.1966   73.0136 LP  0  0  0  0  0  0  0  0  0  0  0  0  # atno 4785 bound_to 346 
   -2.8694   16.7470   72.5375 LP  0  0  0  0  0  0  0  0  0  0  0  0  # atno 4786 bound_to 346 
   -3.0943   22.3020   74.8183 LP  0  0  0  0  0  0  0  0  0  0  0  0  # atno 4787 bound_to 339 
   -3.6320   20.8351   74.3433 LP  0  0  0  0  0  0  0  0  0  0  0  0  # atno 4788 bound_to 339 
   -7.5077   28.2110   65.5252 LP  0  0  0  0  0  0  0  0  0  0  0  0  # atno 4797 bound_to 154 
   -6.9012   29.6596   65.0776 LP  0  0  0  0  0  0  0  0  0  0  0  0  # atno 4798 bound_to 154 

$$$$
