#       Name:                /Users/williammccorkindale/ml_physics/smi2wyck/notebooks/docking/mpro_fragments/prepared_Mpro-x2193.sdf
#       Creating user name   williammccorkindale
#       Creation time:       Tue Jun  7 14:44:34 2022


#       File generated by GOLD software.
#

@<TRIPOS>MOLECULE
/Users/williammccorkindale/ml_physics/smi2wyck/notebooks/docking/mpro_fragments/prepared_Mpro-x2193.sdf|gold_prepared_Mpro-x2193_m1|mol2|1|dock2
    33    34     1
_m1|mol2|1|dock2
NO_CHARGES


@<TRIPOS>ATOM
      1 ****       -10.5647  14.5476  64.9370 C.3            1 S1                 0.0000
      2 ****       -10.0405  15.8956  65.9774 S.o2           1 S1                 0.0000
      3 ****       -10.4949  17.2042  65.3958 O.2            1 S1                 0.0000
      4 ****        -8.5234  15.9004  66.0990 O.2            1 S1                 0.0000
      5 ****       -10.7144  15.6276  67.5752 C.ar           1 S1                 0.0000
      6 ****       -11.4306  14.4873  67.8650 C.ar           1 S1                 0.0000
      7 ****       -11.9633  14.2683  69.1155 C.ar           1 S1                 0.0000
      8 ****       -11.8067  15.1822  70.1455 C.ar           1 S1                 0.0000
      9 ****       -11.0951  16.3217  69.8700 C.ar           1 S1                 0.0000
     10 ****       -10.5553  16.5395  68.5953 C.ar           1 S1                 0.0000
     11 ****       -12.3285  14.9637  71.4357 N.pl3          1 S1                 0.0000
     12 ****       -11.5713  15.3186  72.6039 C.3            1 S1                 0.0000
     13 ****       -12.4269  16.2428  73.4601 C.3            1 S1                 0.0000
     14 ****       -13.6936  15.6414  73.7192 N.3            1 S1                 0.0000
     15 ****       -14.4275  15.3303  72.5043 C.3            1 S1                 0.0000
     16 ****       -13.6309  14.3610  71.6522 C.3            1 S1                 0.0000
     17 ****       -11.4113  14.8942  64.2858 H              1 S1                 0.0000
     18 ****       -10.9127  13.6774  65.5190 H              1 S1                 0.0000
     19 ****        -9.7092  14.2420  64.2966 H              1 S1                 0.0000
     20 ****       -11.5611  13.7552  67.0551 H              1 S1                 0.0000
     21 ****       -12.5241  13.3559  69.2978 H              1 S1                 0.0000
     22 ****       -10.9475  17.0485  70.6560 H              1 S1                 0.0000
     23 ****       -10.0097  17.4357  68.4197 H              1 S1                 0.0000
     24 ****       -11.4688  14.3817  73.2149 H              1 S1                 0.0000
     25 ****       -10.5918  15.7520  72.4201 H              1 S1                 0.0000
     26 ****       -12.4921  17.2145  72.9191 H              1 S1                 0.0000
     27 ****       -11.8930  16.3466  74.4270 H              1 S1                 0.0000
     28 ****       -14.2994  16.2306  74.3020 H              1 S1                 0.0000
     29 ****       -15.3978  14.8796  72.8308 H              1 S1                 0.0000
     30 ****       -14.5685  16.2528  71.9057 H              1 S1                 0.0000
     31 ****       -14.1454  14.1554  70.7193 H              1 S1                 0.0000
     32 ****       -13.4684  13.4018  72.2151 H              1 S1                 0.0000
     33 ****       -13.4700  14.7968  74.2057 LP             1 S1                 0.0000
@<TRIPOS>BOND
    1    1    2 1     
    2    2    3 2     
    3    2    4 2     
    4    2    5 1     
    5    5    6 ar    
    6    6    7 ar    
    7    7    8 ar    
    8    8    9 ar    
    9    9   10 ar    
   10    8   11 1     
   11   11   12 1     
   12   12   13 1     
   13   13   14 1     
   14   14   15 1     
   15   15   16 1     
   16   10    5 ar    
   17   16   11 1     
   18    1   17 1     
   19    1   18 1     
   20    1   19 1     
   21    6   20 1     
   22    7   21 1     
   23    9   22 1     
   24   10   23 1     
   25   12   24 1     
   26   12   25 1     
   27   13   26 1     
   28   13   27 1     
   29   14   28 1     
   30   15   29 1     
   31   15   30 1     
   32   16   31 1     
   33   16   32 1     
   34   14   33 1     
@<TRIPOS>SUBSTRUCTURE
      1 S1             1
@<TRIPOS>SET
LONE_PAIRS      STATIC     ATOMS    <user>   **** ""
3 3 4 33
DONOR_HYDROGENS      STATIC     ATOMS    <user>   **** ""
1 28
ATOM$BLUE        STATIC     ATOMS    COLORGROUP SYSTEM
3 3 4 33
ATOM$RED        STATIC     ATOMS    COLORGROUP SYSTEM
1 28
@<TRIPOS>COMMENT
> <Gold.Version>
2022.1.0

> <Gold.Id.Protein>
6LU7|6LU7_protein|mol2

> <Gold.Protein.RotatedTorsions>
[ 3973 1471 1470 1467 ] final  -60.35 input   60.00 | X-H torsion
[ 3372  414  413  411 ] final   36.68 input   60.00 | X-H torsion
[ 4268 1114 1113 1110 ] final  120.58 input   59.99 | X-H torsion
[ 4409  924  923  921 ] final  -90.82 input   59.99 | X-H torsion
[ 4183 1244 1243 1241 ] final -133.58 input   59.99 | X-H torsion
[ 3800  178  177  174 ] final  -11.97 input   60.00 | X-H torsion
[ 3793  171  170  167 ] final -141.12 input   60.00 | X-H torsion
[ 3576  185  184  181 ] final   13.83 input   60.00 | X-H torsion
[ 3523  346  345  342 ] final  -62.31 input   60.01 | X-H torsion
[ 3515  339  338  335 ] final   30.46 input   60.00 | X-H torsion
[ 3663  154  153  150 ] final    8.39 input   60.00 | X-H torsion
[ 4280 1130 1129 1126 ] final -128.48 input   60.00 | X-H torsion

> <Gold.Protein.ActiveResidues>
 VAL20   THR21   CYS22   GLY23   THR24   THR25   THR26   LEU27   ASN28   PRO39  
 ARG40   HIS41   VAL42   CYS44   THR45   SER46   ASP48   MET49   LEU50   PRO52  
 TYR54   TYR118  ASN119  ILE136  GLY138  SER139  PHE140  LEU141  ASN142  GLY143 
 SER144  CYS145  GLY146  SER147  TYR161  HIS163  HIS164  MET165  GLU166  LEU167 
 PRO168  THR169  GLY170  VAL171  HIS172  ALA173  PHE181  PHE185  VAL186  ASP187 
 ARG188  GLN189  THR190  ALA191  GLN192  ALA193 

> <Gold.Protein.RotatedAtoms>
  -13.9162   18.1582   75.6193 H   0  0  0  0  0  0  0  0  0  0  0  0  # atno 3372 bound_to 414 
   -3.6699   21.2736   74.1790 H   0  0  0  0  0  0  0  0  0  0  0  0  # atno 3515 bound_to 339 
   -3.4231   17.0551   72.6072 H   0  0  0  0  0  0  0  0  0  0  0  0  # atno 3523 bound_to 346 
   -8.8080   25.9489   63.9761 H   0  0  0  0  0  0  0  0  0  0  0  0  # atno 3576 bound_to 185 
   -8.4967   28.7306   65.3397 H   0  0  0  0  0  0  0  0  0  0  0  0  # atno 3663 bound_to 154 
   -1.8021   24.3488   72.5974 H   0  0  0  0  0  0  0  0  0  0  0  0  # atno 3793 bound_to 171 
   -6.0872   23.1195   71.4253 H   0  0  0  0  0  0  0  0  0  0  0  0  # atno 3800 bound_to 178 
  -14.9909    8.9751   77.2740 H   0  0  0  0  0  0  0  0  0  0  0  0  # atno 3973 bound_to 1471
  -19.9067   13.9113   63.7715 H   0  0  0  0  0  0  0  0  0  0  0  0  # atno 4183 bound_to 1244
  -14.1328   15.6532   61.0390 H   0  0  0  0  0  0  0  0  0  0  0  0  # atno 4268 bound_to 1114
  -16.2635   19.0997   58.0076 H   0  0  0  0  0  0  0  0  0  0  0  0  # atno 4280 bound_to 1130
  -12.0619   15.4049   57.6353 H   0  0  0  0  0  0  0  0  0  0  0  0  # atno 4409 bound_to 924 
  -15.6388    8.2405   78.5735 LP  0  0  0  0  0  0  0  0  0  0  0  0  # atno 4696 bound_to 1471
  -15.4070    7.4042   77.1903 LP  0  0  0  0  0  0  0  0  0  0  0  0  # atno 4697 bound_to 1471
  -15.4019   17.8040   75.0579 LP  0  0  0  0  0  0  0  0  0  0  0  0  # atno 4731 bound_to 414 
  -14.7834   16.9729   76.3202 LP  0  0  0  0  0  0  0  0  0  0  0  0  # atno 4732 bound_to 414 
  -13.2172   16.4215   62.1432 LP  0  0  0  0  0  0  0  0  0  0  0  0  # atno 4733 bound_to 1114
  -12.5585   15.2703   61.1905 LP  0  0  0  0  0  0  0  0  0  0  0  0  # atno 4734 bound_to 1114
  -10.5041   14.9344   57.6386 LP  0  0  0  0  0  0  0  0  0  0  0  0  # atno 4763 bound_to 924 
  -11.2931   15.1458   56.2246 LP  0  0  0  0  0  0  0  0  0  0  0  0  # atno 4764 bound_to 924 
  -20.5235   12.6299   62.9807 LP  0  0  0  0  0  0  0  0  0  0  0  0  # atno 4771 bound_to 1244
  -20.9402   12.9122   64.5341 LP  0  0  0  0  0  0  0  0  0  0  0  0  # atno 4772 bound_to 1244
   -7.4547   22.4063   71.9442 LP  0  0  0  0  0  0  0  0  0  0  0  0  # atno 4775 bound_to 178 
   -7.0793   23.9163   72.4397 LP  0  0  0  0  0  0  0  0  0  0  0  0  # atno 4776 bound_to 178 
   -2.8128   23.4127   71.7312 LP  0  0  0  0  0  0  0  0  0  0  0  0  # atno 4779 bound_to 171 
   -3.3528   24.8010   72.4004 LP  0  0  0  0  0  0  0  0  0  0  0  0  # atno 4780 bound_to 171 
   -7.6719   25.1530   63.1254 LP  0  0  0  0  0  0  0  0  0  0  0  0  # atno 4783 bound_to 185 
   -7.4655   26.7307   63.4923 LP  0  0  0  0  0  0  0  0  0  0  0  0  # atno 4784 bound_to 185 
   -1.8308   17.3120   72.8228 LP  0  0  0  0  0  0  0  0  0  0  0  0  # atno 4785 bound_to 346 
   -2.9050   18.4938   73.1637 LP  0  0  0  0  0  0  0  0  0  0  0  0  # atno 4786 bound_to 346 
   -2.9422   20.6158   75.4773 LP  0  0  0  0  0  0  0  0  0  0  0  0  # atno 4787 bound_to 339 
   -2.8526   22.2251   75.2157 LP  0  0  0  0  0  0  0  0  0  0  0  0  # atno 4788 bound_to 339 
   -6.8788   28.5771   65.4228 LP  0  0  0  0  0  0  0  0  0  0  0  0  # atno 4797 bound_to 154 
   -7.5446   29.9935   64.9567 LP  0  0  0  0  0  0  0  0  0  0  0  0  # atno 4798 bound_to 154 

> <Gold.Score>
     Score     S(PLP)   S(hbond)     S(cho)   S(metal)  DE(clash)   DE(tors)     intcor
     48.10     -44.97       1.46       0.00       0.00       0.00       1.73       2.22

> <Gold.PLP.Fitness>
48.0993

> <Gold.PLP.PLP>
-44.9715

> <Gold.PLP.part.hbond>
-2.3283

> <Gold.PLP.part.metal>
0.0000

> <Gold.PLP.part.buried>
-5.6824

> <Gold.PLP.part.nonpolar>
-37.8555

> <Gold.PLP.part.repulsive>
0.1191

> <Gold.PLP.ligand.clash>
0.0000

> <Gold.PLP.ligand.torsion>
1.7317

> <Gold.PLP.Chemscore.Hbond>
1.4565

> <Gold.PLP.Chemscore.CHOScore>
0.0000

> <Gold.PLP.Chemscore.Metal>
0.0000

> <Gold.Chemscore.Hbonds>
donor molecule, donor type, donor heavy atom, donor atom, acceptor molecule, acceptor atom, score
      L1  H    14    28       P1  1441  0.46
      P1  H  1105  4261       L1     3  1.00

> <Gold.PLP.Chemscore.Internal.Correction>
2.2218

