unknown|prepared_Mpro-x0395|sdf|1|dock4
  -GOLD-   5 72214353D 1   1.00000     0.00000

 26 27  0  0  0  0  0  0  0  0  1 V2000
  -12.5982   12.0371   63.6032 C   0  0  0  0  0  0  0  0  0  0  0  0
  -12.2424   12.6240   64.9368 C   0  0  0  0  0  0  0  0  0  0  0  0
  -12.4395   13.8593   65.3852 N   0  0  0  0  0  0  0  0  0  0  0  0
  -12.0688   14.1747   66.5494 N   0  0  0  0  0  0  0  0  0  0  0  0
  -11.4812   13.2710   67.3267 C   0  0  0  0  0  0  0  0  0  0  0  0
  -10.9675   13.4397   68.7362 C   0  0  0  0  0  0  0  0  0  0  0  0
  -11.9753   14.1273   69.4905 N   0  0  0  0  0  0  0  0  0  0  0  0
  -11.7265   15.4966   69.7037 C   0  0  0  0  0  0  0  0  0  0  0  0
  -11.4043   15.8966   71.1101 C   0  0  0  0  0  0  0  0  0  0  0  0
  -12.2925   15.2537   72.1080 C   0  0  0  0  0  0  0  0  0  0  0  0
  -12.8271   14.0869   71.7799 C   0  0  0  0  0  0  0  0  0  0  0  0
  -13.6409   13.5025   72.6996 F   0  0  0  0  0  0  0  0  0  0  0  0
  -12.6040   13.3916   70.5087 C   0  0  0  0  0  0  0  0  0  0  0  0
  -11.4784   11.9077   66.2964 S   0  0  0  0  0  0  0  0  0  0  0  0
  -12.6770   10.9441   63.7058 H   0  0  0  0  0  0  0  0  0  0  0  0
  -13.6231   12.3974   63.2970 H   0  0  0  0  0  0  0  0  0  0  0  0
  -11.8254   12.3006   62.8628 H   0  0  0  0  0  0  0  0  0  0  0  0
  -10.7485   12.4348   69.1016 H   0  0  0  0  0  0  0  0  0  0  0  0
  -10.0843   14.1049   68.6690 H   0  0  0  0  0  0  0  0  0  0  0  0
  -10.8335   15.7920   69.0783 H   0  0  0  0  0  0  0  0  0  0  0  0
  -12.5691   16.1199   69.2955 H   0  0  0  0  0  0  0  0  0  0  0  0
  -11.5633   16.9924   71.1888 H   0  0  0  0  0  0  0  0  0  0  0  0
  -10.3280   15.7264   71.3353 H   0  0  0  0  0  0  0  0  0  0  0  0
  -12.4614   15.7563   73.0421 H   0  0  0  0  0  0  0  0  0  0  0  0
  -11.9653   12.4882   70.7384 H   0  0  0  0  0  0  0  0  0  0  0  0
  -13.5947   12.9397   70.2060 H   0  0  0  0  0  0  0  0  0  0  0  0
  1  2  1  0  0  0  0
  2  3  2  0  0  0  0
  3  4  1  0  0  0  0
  4  5  2  0  0  0  0
  5  6  1  0  0  0  0
  6  7  1  0  0  0  0
  7  8  1  0  0  0  0
  8  9  1  0  0  0  0
  9 10  1  0  0  0  0
 10 11  2  0  0  0  0
 11 12  1  0  0  0  0
 11 13  1  0  0  0  0
  5 14  1  0  0  0  0
 14  2  1  0  0  0  0
 13  7  1  0  0  0  0
  1 15  1  0  0  0  0
  1 16  1  0  0  0  0
  1 17  1  0  0  0  0
  6 18  1  0  0  0  0
  6 19  1  0  0  0  0
  8 20  1  0  0  0  0
  8 21  1  0  0  0  0
  9 22  1  0  0  0  0
  9 23  1  0  0  0  0
 10 24  1  0  0  0  0
 13 25  1  0  0  0  0
 13 26  1  0  0  0  0
M  END
> <Gold.Version>
2022.1.0

> <Gold.Id.Protein>
6LU7|6LU7_protein|mol2

> <Gold.PLP.Fitness>
38.9264

> <Gold.PLP.PLP>
-40.4219

> <Gold.PLP.part.hbond>
0.0000

> <Gold.PLP.part.metal>
0.0000

> <Gold.PLP.part.buried>
-6.2886

> <Gold.PLP.part.nonpolar>
-34.7610

> <Gold.PLP.part.repulsive>
0.3698

> <Gold.PLP.ligand.clash>
0.0000

> <Gold.PLP.ligand.torsion>
0.8262

> <Gold.PLP.Chemscore.Hbond>
0.0000

> <Gold.PLP.Chemscore.CHOScore>
0.0000

> <Gold.PLP.Chemscore.Metal>
0.0000

> <Gold.PLP.Chemscore.Internal.Correction>
0.1570

> <Gold.Protein.RotatedTorsions>
[ 3973 1471 1470 1467 ] final   63.77 input   60.00 | X-H torsion
[ 3372  414  413  411 ] final  110.01 input   60.00 | X-H torsion
[ 4268 1114 1113 1110 ] final  177.80 input   59.99 | X-H torsion
[ 4409  924  923  921 ] final -143.90 input   59.99 | X-H torsion
[ 4183 1244 1243 1241 ] final   -0.79 input   59.99 | X-H torsion
[ 3800  178  177  174 ] final  146.90 input   60.00 | X-H torsion
[ 3793  171  170  167 ] final  -56.11 input   60.00 | X-H torsion
[ 3576  185  184  181 ] final  -86.80 input   60.00 | X-H torsion
[ 3523  346  345  342 ] final   10.66 input   60.01 | X-H torsion
[ 3515  339  338  335 ] final  -72.67 input   60.00 | X-H torsion
[ 3663  154  153  150 ] final   25.85 input   60.00 | X-H torsion
[ 4280 1130 1129 1126 ] final  -69.51 input   60.00 | X-H torsion

> <Gold.Protein.ActiveResidues>
 VAL20   THR21   CYS22   GLY23   THR24   THR25   THR26   LEU27   ASN28   PRO39  
 ARG40   HIS41   VAL42   CYS44   THR45   SER46   ASP48   MET49   LEU50   PRO52  
 TYR54   TYR118  ASN119  ILE136  GLY138  SER139  PHE140  LEU141  ASN142  GLY143 
 SER144  CYS145  GLY146  SER147  TYR161  HIS163  HIS164  MET165  GLU166  LEU167 
 PRO168  THR169  GLY170  VAL171  HIS172  ALA173  PHE181  PHE185  VAL186  ASP187 
 ARG188  GLN189  THR190  ALA191  GLN192  ALA193 

> <Gold.Protein.RotatedAtoms>
  -14.1350   17.3373   76.3464 H   0  0  0  0  0  0  0  0  0  0  0  0  # atno 3372 bound_to 414 
   -3.0910   20.4952   75.2790 H   0  0  0  0  0  0  0  0  0  0  0  0  # atno 3515 bound_to 339 
   -3.5158   18.1013   72.9766 H   0  0  0  0  0  0  0  0  0  0  0  0  # atno 3523 bound_to 346 
   -7.9471   25.0539   63.2453 H   0  0  0  0  0  0  0  0  0  0  0  0  # atno 3576 bound_to 185 
   -8.5718   28.9912   65.2550 H   0  0  0  0  0  0  0  0  0  0  0  0  # atno 3663 bound_to 154 
   -2.8878   24.9954   72.6556 H   0  0  0  0  0  0  0  0  0  0  0  0  # atno 3793 bound_to 171 
   -7.5277   23.4864   72.5109 H   0  0  0  0  0  0  0  0  0  0  0  0  # atno 3800 bound_to 178 
  -15.4310    7.3808   77.2494 H   0  0  0  0  0  0  0  0  0  0  0  0  # atno 3973 bound_to 1471
  -21.0057   12.7579   64.4084 H   0  0  0  0  0  0  0  0  0  0  0  0  # atno 4183 bound_to 1244
  -13.4355   15.1576   60.7708 H   0  0  0  0  0  0  0  0  0  0  0  0  # atno 4268 bound_to 1114
  -16.4277   19.9950   58.1516 H   0  0  0  0  0  0  0  0  0  0  0  0  # atno 4280 bound_to 1130
  -11.3912   15.2117   58.0965 H   0  0  0  0  0  0  0  0  0  0  0  0  # atno 4409 bound_to 924 
  -14.9819    8.9444   77.2141 LP  0  0  0  0  0  0  0  0  0  0  0  0  # atno 4696 bound_to 1471
  -15.6208    8.3060   78.5745 LP  0  0  0  0  0  0  0  0  0  0  0  0  # atno 4697 bound_to 1471
  -14.4169   18.3478   75.1024 LP  0  0  0  0  0  0  0  0  0  0  0  0  # atno 4731 bound_to 414 
  -15.5481   17.2557   75.5435 LP  0  0  0  0  0  0  0  0  0  0  0  0  # atno 4732 bound_to 414 
  -14.0247   16.3123   61.7544 LP  0  0  0  0  0  0  0  0  0  0  0  0  # atno 4733 bound_to 1114
  -12.4533   15.8785   61.8494 LP  0  0  0  0  0  0  0  0  0  0  0  0  # atno 4734 bound_to 1114
  -10.4597   14.9057   56.7978 LP  0  0  0  0  0  0  0  0  0  0  0  0  # atno 4763 bound_to 924 
  -12.0131   15.3691   56.6010 LP  0  0  0  0  0  0  0  0  0  0  0  0  # atno 4764 bound_to 924 
  -19.9680   13.9325   63.9707 LP  0  0  0  0  0  0  0  0  0  0  0  0  # atno 4771 bound_to 1244
  -20.3889   12.7712   62.9027 LP  0  0  0  0  0  0  0  0  0  0  0  0  # atno 4772 bound_to 1244
   -6.1196   23.6719   71.7166 LP  0  0  0  0  0  0  0  0  0  0  0  0  # atno 4775 bound_to 178 
   -6.9636   22.2812   71.5741 LP  0  0  0  0  0  0  0  0  0  0  0  0  # atno 4776 bound_to 178 
   -1.7728   23.8600   72.3157 LP  0  0  0  0  0  0  0  0  0  0  0  0  # atno 4779 bound_to 171 
   -3.2992   23.7025   71.7573 LP  0  0  0  0  0  0  0  0  0  0  0  0  # atno 4780 bound_to 171 
   -7.2760   26.5338   63.3314 LP  0  0  0  0  0  0  0  0  0  0  0  0  # atno 4783 bound_to 185 
   -8.7284   26.2513   64.0223 LP  0  0  0  0  0  0  0  0  0  0  0  0  # atno 4784 bound_to 185 
   -2.7491   16.7333   72.5420 LP  0  0  0  0  0  0  0  0  0  0  0  0  # atno 4785 bound_to 346 
   -1.8934   18.0189   73.0725 LP  0  0  0  0  0  0  0  0  0  0  0  0  # atno 4786 bound_to 346 
   -2.7434   22.0783   75.4232 LP  0  0  0  0  0  0  0  0  0  0  0  0  # atno 4787 bound_to 339 
   -3.6343   21.5466   74.1621 LP  0  0  0  0  0  0  0  0  0  0  0  0  # atno 4788 bound_to 339 
   -7.0799   28.3818   65.4805 LP  0  0  0  0  0  0  0  0  0  0  0  0  # atno 4797 bound_to 154 
   -7.2678   29.9263   64.9844 LP  0  0  0  0  0  0  0  0  0  0  0  0  # atno 4798 bound_to 154 

$$$$
