unknown|prepared_Mpro-x0161|sdf|1|dock2
  -GOLD-   5 72214353D 1   1.00000     0.00000

 23 23  0  0  0  0  0  0  0  0  1 V2000
  -12.6239   15.7870   73.6954 C   0  0  0  0  0  0  0  0  0  0  0  0
  -12.1674   15.9011   72.3667 O   0  0  0  0  0  0  0  0  0  0  0  0
  -12.3739   14.9868   71.3761 C   0  0  0  0  0  0  0  0  0  0  0  0
  -13.0035   13.9325   71.6486 O   0  0  0  0  0  0  0  0  0  0  0  0
  -11.8698   15.2346   70.0248 C   0  0  0  0  0  0  0  0  0  0  0  0
  -11.2433   16.4013   69.6667 C   0  0  0  0  0  0  0  0  0  0  0  0
  -10.7651   16.6482   68.4029 C   0  0  0  0  0  0  0  0  0  0  0  0
  -10.9181   15.6747   67.4306 C   0  0  0  0  0  0  0  0  0  0  0  0
  -11.5388   14.4944   67.7480 C   0  0  0  0  0  0  0  0  0  0  0  0
  -12.0101   14.2725   69.0264 C   0  0  0  0  0  0  0  0  0  0  0  0
  -10.2945   16.0274   65.8299 S   0  0  0  0  0  0  0  0  0  0  0  0
   -9.0118   15.2698   65.6361 O   0  0  0  0  0  0  0  0  0  0  0  0
  -10.0334   17.5020   65.7312 O   0  0  0  0  0  0  0  0  0  0  0  0
  -11.4029   15.5001   64.6102 N   0  0  0  0  0  0  0  0  0  0  0  0
  -13.1766   16.7029   73.9981 H   0  0  0  0  0  0  0  0  0  0  0  0
  -11.7194   15.7537   74.3419 H   0  0  0  0  0  0  0  0  0  0  0  0
  -13.2756   14.9092   73.8515 H   0  0  0  0  0  0  0  0  0  0  0  0
  -11.1221   17.1604   70.4179 H   0  0  0  0  0  0  0  0  0  0  0  0
  -10.2826   17.6022   68.2124 H   0  0  0  0  0  0  0  0  0  0  0  0
  -11.6416   13.7559   66.9651 H   0  0  0  0  0  0  0  0  0  0  0  0
  -12.4974   13.3435   69.2719 H   0  0  0  0  0  0  0  0  0  0  0  0
  -11.7591   14.5527   64.9359 H   0  0  0  0  0  0  0  0  0  0  0  0
  -10.8448   15.2822   63.7501 H   0  0  0  0  0  0  0  0  0  0  0  0
  1  2  1  0  0  0  0
  2  3  1  0  0  0  0
  3  4  2  0  0  0  0
  3  5  1  0  0  0  0
  5  6  2  0  0  0  0
  6  7  1  0  0  0  0
  7  8  2  0  0  0  0
  8  9  1  0  0  0  0
  9 10  2  0  0  0  0
  8 11  1  0  0  0  0
 11 12  2  0  0  0  0
 11 13  2  0  0  0  0
 11 14  1  0  0  0  0
  5 10  1  0  0  0  0
  1 15  1  0  0  0  0
  1 16  1  0  0  0  0
  1 17  1  0  0  0  0
  6 18  1  0  0  0  0
  7 19  1  0  0  0  0
  9 20  1  0  0  0  0
 10 21  1  0  0  0  0
 14 22  1  0  0  0  0
 14 23  1  0  0  0  0
M  END
> <Gold.Version>
2022.1.0

> <Gold.Id.Protein>
6LU7|6LU7_protein|mol2

> <Gold.PLP.Fitness>
34.6379

> <Gold.PLP.PLP>
-29.7497

> <Gold.PLP.part.hbond>
-1.5741

> <Gold.PLP.part.metal>
0.0000

> <Gold.PLP.part.buried>
-6.5830

> <Gold.PLP.part.nonpolar>
-24.1574

> <Gold.PLP.part.repulsive>
0.9516

> <Gold.PLP.ligand.clash>
0.0000

> <Gold.PLP.ligand.torsion>
1.1018

> <Gold.PLP.Chemscore.Hbond>
1.6338

> <Gold.PLP.Chemscore.CHOScore>
0.0000

> <Gold.PLP.Chemscore.Metal>
0.0000

> <Gold.Chemscore.Hbonds>
donor molecule, donor type, donor heavy atom, donor atom, acceptor molecule, acceptor atom, score
      L1  H    14    23       P1  1092  0.63
      P1  H  1105  4261       L1    13  1.00

> <Gold.PLP.Chemscore.Internal.Correction>
2.1906

> <Gold.Protein.RotatedTorsions>
[ 3973 1471 1470 1467 ] final -109.00 input   60.00 | X-H torsion
[ 3372  414  413  411 ] final -179.24 input   60.00 | X-H torsion
[ 4268 1114 1113 1110 ] final  -75.10 input   59.99 | X-H torsion
[ 4409  924  923  921 ] final  103.61 input   59.99 | X-H torsion
[ 4183 1244 1243 1241 ] final -106.28 input   59.99 | X-H torsion
[ 3800  178  177  174 ] final   76.46 input   60.00 | X-H torsion
[ 3793  171  170  167 ] final   73.97 input   60.00 | X-H torsion
[ 3576  185  184  181 ] final  148.04 input   60.00 | X-H torsion
[ 3523  346  345  342 ] final   74.67 input   60.01 | X-H torsion
[ 3515  339  338  335 ] final -147.55 input   60.00 | X-H torsion
[ 3663  154  153  150 ] final -134.84 input   60.00 | X-H torsion
[ 4280 1130 1129 1126 ] final  -82.52 input   60.00 | X-H torsion

> <Gold.Protein.ActiveResidues>
 VAL20   THR21   CYS22   GLY23   THR24   THR25   THR26   LEU27   ASN28   PRO39  
 ARG40   HIS41   VAL42   CYS44   THR45   SER46   ASP48   MET49   LEU50   PRO52  
 TYR54   TYR118  ASN119  ILE136  GLY138  SER139  PHE140  LEU141  ASN142  GLY143 
 SER144  CYS145  GLY146  SER147  TYR161  HIS163  HIS164  MET165  GLU166  LEU167 
 PRO168  THR169  GLY170  VAL171  HIS172  ALA173  PHE181  PHE185  VAL186  ASP187 
 ARG188  GLN189  THR190  ALA191  GLN192  ALA193 

> <Gold.Protein.RotatedAtoms>
  -15.1254   16.9540   76.1296 H   0  0  0  0  0  0  0  0  0  0  0  0  # atno 3372 bound_to 414 
   -2.6470   21.4373   75.7384 H   0  0  0  0  0  0  0  0  0  0  0  0  # atno 3515 bound_to 339 
   -2.6285   18.4926   73.1875 H   0  0  0  0  0  0  0  0  0  0  0  0  # atno 3523 bound_to 346 
   -7.3230   26.5886   63.3758 H   0  0  0  0  0  0  0  0  0  0  0  0  # atno 3576 bound_to 185 
   -6.7290   28.9098   65.3226 H   0  0  0  0  0  0  0  0  0  0  0  0  # atno 3663 bound_to 154 
   -3.1722   23.6002   71.7318 H   0  0  0  0  0  0  0  0  0  0  0  0  # atno 3793 bound_to 171 
   -6.6360   24.0125   72.2041 H   0  0  0  0  0  0  0  0  0  0  0  0  # atno 3800 bound_to 178 
  -15.2103    9.0748   78.0066 H   0  0  0  0  0  0  0  0  0  0  0  0  # atno 3973 bound_to 1471
  -20.0775   13.9012   64.1789 H   0  0  0  0  0  0  0  0  0  0  0  0  # atno 4183 bound_to 1244
  -12.4049   15.7285   61.7089 H   0  0  0  0  0  0  0  0  0  0  0  0  # atno 4268 bound_to 1114
  -16.4305   19.8102   58.0475 H   0  0  0  0  0  0  0  0  0  0  0  0  # atno 4280 bound_to 1130
  -10.4255   14.8999   56.9160 H   0  0  0  0  0  0  0  0  0  0  0  0  # atno 4409 bound_to 924 
  -15.7198    7.5463   78.2349 LP  0  0  0  0  0  0  0  0  0  0  0  0  # atno 4696 bound_to 1471
  -15.1052    7.9981   76.7910 LP  0  0  0  0  0  0  0  0  0  0  0  0  # atno 4697 bound_to 1471
  -13.8327   17.9197   75.9190 LP  0  0  0  0  0  0  0  0  0  0  0  0  # atno 4731 bound_to 414 
  -15.1349   18.0699   74.9452 LP  0  0  0  0  0  0  0  0  0  0  0  0  # atno 4732 bound_to 414 
  -13.6362   15.2233   60.7727 LP  0  0  0  0  0  0  0  0  0  0  0  0  # atno 4733 bound_to 1114
  -13.8798   16.3926   61.8863 LP  0  0  0  0  0  0  0  0  0  0  0  0  # atno 4734 bound_to 1114
  -11.9366   15.3444   56.5075 LP  0  0  0  0  0  0  0  0  0  0  0  0  # atno 4763 bound_to 924 
  -11.5088   15.2444   58.0803 LP  0  0  0  0  0  0  0  0  0  0  0  0  # atno 4764 bound_to 924 
  -20.2407   12.9537   62.8660 LP  0  0  0  0  0  0  0  0  0  0  0  0  # atno 4771 bound_to 1244
  -21.0510   12.5986   64.2386 LP  0  0  0  0  0  0  0  0  0  0  0  0  # atno 4772 bound_to 1244
   -6.3110   22.6663   71.3496 LP  0  0  0  0  0  0  0  0  0  0  0  0  # atno 4775 bound_to 178 
   -7.6703   22.7570   72.2500 LP  0  0  0  0  0  0  0  0  0  0  0  0  # atno 4776 bound_to 178 
   -3.0405   24.9716   72.5976 LP  0  0  0  0  0  0  0  0  0  0  0  0  # atno 4779 bound_to 171 
   -1.7451   23.9961   72.4058 LP  0  0  0  0  0  0  0  0  0  0  0  0  # atno 4780 bound_to 171 
   -8.7603   26.1730   64.0156 LP  0  0  0  0  0  0  0  0  0  0  0  0  # atno 4783 bound_to 185 
   -7.8728   25.0664   63.2066 LP  0  0  0  0  0  0  0  0  0  0  0  0  # atno 4784 bound_to 185 
   -3.5782   17.2759   72.6720 LP  0  0  0  0  0  0  0  0  0  0  0  0  # atno 4785 bound_to 346 
   -1.9578   17.0823   72.7301 LP  0  0  0  0  0  0  0  0  0  0  0  0  # atno 4786 bound_to 346 
   -3.3522   22.1452   74.4540 LP  0  0  0  0  0  0  0  0  0  0  0  0  # atno 4787 bound_to 339 
   -3.4727   20.5309   74.6685 LP  0  0  0  0  0  0  0  0  0  0  0  0  # atno 4788 bound_to 339 
   -7.9223   29.9552   64.9604 LP  0  0  0  0  0  0  0  0  0  0  0  0  # atno 4797 bound_to 154 
   -8.2813   28.4349   65.4364 LP  0  0  0  0  0  0  0  0  0  0  0  0  # atno 4798 bound_to 154 

$$$$
