#       Name:                unknown
#       Creating user name   williammccorkindale
#       Creation time:       Tue Jun  7 14:55:38 2022


#       File generated by GOLD software.
#

@<TRIPOS>MOLECULE
unknown|prepared_Mpro-x1249|mol2|1|dock4
    38    39     1
SMALL
NO_CHARGES


@<TRIPOS>ATOM
      1 O1         -11.1078  11.3078  68.1393 O.2            1 RES1               0.0000
      2 C2         -11.5790  12.3531  67.7947 C.2            1 RES1               0.0000
      3 N3         -12.2779  13.2255  68.7924 N.am           1 RES1               0.0000
      4 C4         -12.5542  12.7441  70.1215 C.3            1 RES1               0.0000
      5 C5         -12.5768  13.9186  71.0292 C.ar           1 RES1               0.0000
      6 C6         -13.8013  14.0411  71.9114 C.ar           1 RES1               0.0000
      7 C7         -13.7484  14.9624  72.9760 C.ar           1 RES1               0.0000
      8 C8         -12.5406  15.7603  73.2440 C.ar           1 RES1               0.0000
      9 C9         -12.3915  16.5572  74.3782 C.1            1 RES1               0.0000
     10 N10        -12.2999  17.0669  75.1198 N.1            1 RES1               0.0000
     11 C11        -11.5321  15.5756  72.2944 C.ar           1 RES1               0.0000
     12 C12        -11.6483  14.6857  71.2838 C.ar           1 RES1               0.0000
     13 N13        -11.6868  13.0557  66.5361 N.am           1 RES1               0.0000
     14 C14        -10.7549  12.6930  65.4282 C.3            1 RES1               0.0000
     15 C15         -9.9951  13.9815  65.1467 C.3            1 RES1               0.0000
     16 O16        -10.4913  15.1083  65.6329 O.3            1 RES1               0.0000
     17 C17        -11.7321  15.3051  66.1485 C.3            1 RES1               0.0000
     18 C18        -12.6030  14.0994  66.2594 C.3            1 RES1               0.0000
     19 H19        -12.3527  14.1928  68.6027 H              1 RES1               0.0000
     20 H20        -11.7388  12.0296  70.4338 H              1 RES1               0.0000
     21 H21        -13.5289  12.2257  70.2460 H              1 RES1               0.0000
     22 H22        -14.5902  13.4085  71.7113 H              1 RES1               0.0000
     23 H23        -14.6192  15.0417  73.5073 H              1 RES1               0.0000
     24 H24        -10.5581  16.0911  72.4162 H              1 RES1               0.0000
     25 H25        -10.8477  14.7267  70.4255 H              1 RES1               0.0000
     26 H26        -10.1055  11.8946  65.8064 H              1 RES1               0.0000
     27 H27        -11.2910  12.3278  64.5868 H              1 RES1               0.0000
     28 H28         -8.9539  13.8414  65.6200 H              1 RES1               0.0000
     29 H29         -9.6876  14.0127  64.0227 H              1 RES1               0.0000
     30 H30        -12.3254  16.1801  65.5807 H              1 RES1               0.0000
     31 H31        -11.7243  15.7804  67.1690 H              1 RES1               0.0000
     32 H32        -13.0251  13.8734  65.2018 H              1 RES1               0.0000
     33 H33        -13.3528  14.1425  66.9817 H              1 RES1               0.0000
     34 ****       -11.1806  11.0168  69.0933 LP             1 RES1               0.0000
     35 ****       -10.6414  10.7257  67.4733 LP             1 RES1               0.0000
     36 ****       -12.1986  17.6304  75.9397 LP             1 RES1               0.0000
     37 ****       -10.4181  15.7655  64.8828 LP             1 RES1               0.0000
     38 ****        -9.8643  15.3690  66.3669 LP             1 RES1               0.0000
@<TRIPOS>BOND
    1    1    2 2     
    2    2    3 am    
    3    3    4 1     
    4    4    5 1     
    5    5    6 ar    
    6    6    7 ar    
    7    7    8 ar    
    8    8    9 1     
    9    9   10 3     
   10    8   11 ar    
   11   11   12 ar    
   12    2   13 am    
   13   13   14 1     
   14   14   15 1     
   15   15   16 1     
   16   16   17 1     
   17   17   18 1     
   18    5   12 ar    
   19   18   13 1     
   20    3   19 1     
   21    4   20 1     
   22    4   21 1     
   23    6   22 1     
   24    7   23 1     
   25   11   24 1     
   26   12   25 1     
   27   14   26 1     
   28   14   27 1     
   29   15   28 1     
   30   15   29 1     
   31   17   30 1     
   32   17   31 1     
   33   18   32 1     
   34   18   33 1     
   35    1   34 1     
   36    1   35 1     
   37   10   36 1     
   38   16   37 1     
   39   16   38 1     
@<TRIPOS>SUBSTRUCTURE
      1 RES1           1
@<TRIPOS>SET
LONE_PAIRS      STATIC     ATOMS    <user>   **** ""
5 34 35 36 37 38
DONOR_HYDROGENS      STATIC     ATOMS    <user>   **** ""
1 19
ATOM$BLUE        STATIC     ATOMS    COLORGROUP SYSTEM
5 34 35 36 37 38
ATOM$RED        STATIC     ATOMS    COLORGROUP SYSTEM
1 19
@<TRIPOS>COMMENT
> <Gold.Version>
2022.1.0

> <Gold.Id.Protein>
6LU7|6LU7_protein|mol2

> <Gold.Protein.RotatedTorsions>
[ 3973 1471 1470 1467 ] final  -24.32 input   60.00 | X-H torsion
[ 3372  414  413  411 ] final   59.92 input   60.00 | X-H torsion
[ 4268 1114 1113 1110 ] final   54.33 input   59.99 | X-H torsion
[ 4409  924  923  921 ] final   18.51 input   59.99 | X-H torsion
[ 4183 1244 1243 1241 ] final   74.67 input   59.99 | X-H torsion
[ 3800  178  177  174 ] final   81.04 input   60.00 | X-H torsion
[ 3793  171  170  167 ] final -179.07 input   60.00 | X-H torsion
[ 3576  185  184  181 ] final   45.41 input   60.00 | X-H torsion
[ 3523  346  345  342 ] final  164.48 input   60.01 | X-H torsion
[ 3515  339  338  335 ] final  164.51 input   60.00 | X-H torsion
[ 3663  154  153  150 ] final  174.00 input   60.00 | X-H torsion
[ 4280 1130 1129 1126 ] final   18.56 input   60.00 | X-H torsion

> <Gold.Protein.ActiveResidues>
 VAL20   THR21   CYS22   GLY23   THR24   THR25   THR26   LEU27   ASN28   PRO39  
 ARG40   HIS41   VAL42   CYS44   THR45   SER46   ASP48   MET49   LEU50   PRO52  
 TYR54   TYR118  ASN119  ILE136  GLY138  SER139  PHE140  LEU141  ASN142  GLY143 
 SER144  CYS145  GLY146  SER147  TYR161  HIS163  HIS164  MET165  GLU166  LEU167 
 PRO168  THR169  GLY170  VAL171  HIS172  ALA173  PHE181  PHE185  VAL186  ASP187 
 ARG188  GLN189  THR190  ALA191  GLN192  ALA193 

> <Gold.Protein.RotatedAtoms>
  -13.8398   17.9286   75.9088 H   0  0  0  0  0  0  0  0  0  0  0  0  # atno 3372 bound_to 414 
   -2.7642   22.1026   75.3890 H   0  0  0  0  0  0  0  0  0  0  0  0  # atno 3515 bound_to 339 
   -1.7921   17.5103   72.8998 H   0  0  0  0  0  0  0  0  0  0  0  0  # atno 3523 bound_to 346 
   -8.6238   26.4218   64.0207 H   0  0  0  0  0  0  0  0  0  0  0  0  # atno 3576 bound_to 185 
   -6.9091   29.6596   65.0798 H   0  0  0  0  0  0  0  0  0  0  0  0  # atno 3663 bound_to 154 
   -1.7918   23.8254   72.2864 H   0  0  0  0  0  0  0  0  0  0  0  0  # atno 3793 bound_to 171 
   -6.6989   24.0139   72.2445 H   0  0  0  0  0  0  0  0  0  0  0  0  # atno 3800 bound_to 178 
  -14.9802    8.5464   76.8850 H   0  0  0  0  0  0  0  0  0  0  0  0  # atno 3973 bound_to 1471
  -20.8282   12.4099   63.3314 H   0  0  0  0  0  0  0  0  0  0  0  0  # atno 4183 bound_to 1244
  -13.9837   16.3344   61.7876 H   0  0  0  0  0  0  0  0  0  0  0  0  # atno 4268 bound_to 1114
  -15.9278   20.2788   59.3193 H   0  0  0  0  0  0  0  0  0  0  0  0  # atno 4280 bound_to 1130
  -11.4585   15.1982   56.2475 H   0  0  0  0  0  0  0  0  0  0  0  0  # atno 4409 bound_to 924 
  -15.4413    8.7699   78.4295 LP  0  0  0  0  0  0  0  0  0  0  0  0  # atno 4696 bound_to 1471
  -15.6154    7.3065   77.7260 LP  0  0  0  0  0  0  0  0  0  0  0  0  # atno 4697 bound_to 1471
  -15.1457   18.0616   74.9471 LP  0  0  0  0  0  0  0  0  0  0  0  0  # atno 4731 bound_to 414 
  -15.1165   16.9464   76.1395 LP  0  0  0  0  0  0  0  0  0  0  0  0  # atno 4732 bound_to 414 
  -12.4343   15.8379   61.8142 LP  0  0  0  0  0  0  0  0  0  0  0  0  # atno 4733 bound_to 1114
  -13.4916   15.1678   60.7655 LP  0  0  0  0  0  0  0  0  0  0  0  0  # atno 4734 bound_to 1114
  -11.9701   15.3777   57.7817 LP  0  0  0  0  0  0  0  0  0  0  0  0  # atno 4763 bound_to 924 
  -10.4349   14.9106   57.4793 LP  0  0  0  0  0  0  0  0  0  0  0  0  # atno 4764 bound_to 924 
  -20.6785   13.3387   64.6592 LP  0  0  0  0  0  0  0  0  0  0  0  0  # atno 4771 bound_to 1244
  -19.8573   13.7154   63.2989 LP  0  0  0  0  0  0  0  0  0  0  0  0  # atno 4772 bound_to 1244
   -6.2650   22.7259   71.3495 LP  0  0  0  0  0  0  0  0  0  0  0  0  # atno 4775 bound_to 178 
   -7.6529   22.6960   72.2095 LP  0  0  0  0  0  0  0  0  0  0  0  0  # atno 4776 bound_to 178 
   -3.3318   23.7372   71.7683 LP  0  0  0  0  0  0  0  0  0  0  0  0  # atno 4779 bound_to 171 
   -2.8441   25.0037   72.6765 LP  0  0  0  0  0  0  0  0  0  0  0  0  # atno 4780 bound_to 171 
   -8.1262   25.0340   63.3322 LP  0  0  0  0  0  0  0  0  0  0  0  0  # atno 4783 bound_to 185 
   -7.1967   26.3734   63.2405 LP  0  0  0  0  0  0  0  0  0  0  0  0  # atno 4784 bound_to 185 
   -3.1108   18.4363   73.1267 LP  0  0  0  0  0  0  0  0  0  0  0  0  # atno 4785 bound_to 346 
   -3.2675   16.9110   72.5651 LP  0  0  0  0  0  0  0  0  0  0  0  0  # atno 4786 bound_to 346 
   -3.6435   21.5012   74.1590 LP  0  0  0  0  0  0  0  0  0  0  0  0  # atno 4787 bound_to 339 
   -3.0634   20.5048   75.3154 LP  0  0  0  0  0  0  0  0  0  0  0  0  # atno 4788 bound_to 339 
   -8.5188   29.4234   65.1162 LP  0  0  0  0  0  0  0  0  0  0  0  0  # atno 4797 bound_to 154 
   -7.5034   28.2116   65.5251 LP  0  0  0  0  0  0  0  0  0  0  0  0  # atno 4798 bound_to 154 

> <Gold.Score>
     Score     S(PLP)   S(hbond)     S(cho)   S(metal)  DE(clash)   DE(tors)     intcor
     46.57     -44.99       0.78       0.00       0.00       1.83       0.38       1.82

> <Gold.PLP.Fitness>
46.5722

> <Gold.PLP.PLP>
-44.9926

> <Gold.PLP.part.hbond>
-1.0000

> <Gold.PLP.part.metal>
0.0000

> <Gold.PLP.part.buried>
-4.8412

> <Gold.PLP.part.nonpolar>
-39.9171

> <Gold.PLP.part.repulsive>
0.3776

> <Gold.PLP.ligand.clash>
1.8312

> <Gold.PLP.ligand.torsion>
0.3830

> <Gold.PLP.Chemscore.Hbond>
0.7840

> <Gold.PLP.Chemscore.CHOScore>
0.0000

> <Gold.PLP.Chemscore.Metal>
0.0000

> <Gold.Chemscore.Hbonds>
donor molecule, donor type, donor heavy atom, donor atom, acceptor molecule, acceptor atom, score
      P1  H   414  3372       L1    10  0.78

> <Gold.PLP.Chemscore.Internal.Correction>
1.8248

