#       Name:                unknown
#       Creating user name   williammccorkindale
#       Creation time:       Tue Jun  7 14:55:38 2022


#       File generated by GOLD software.
#

@<TRIPOS>MOLECULE
unknown|prepared_Mpro-x0874|mol2|1|dock5
    28    29     1
SMALL
NO_CHARGES


@<TRIPOS>ATOM
      1 O1          -9.2741  13.5275  66.7989 O.2            1 RES1               0.0000
      2 C2          -9.5241  13.3081  67.9948 C.2            1 RES1               0.0000
      3 C3         -10.8362  13.5396  68.5546 C.3            1 RES1               0.0000
      4 C4         -11.9048  14.1155  67.7426 C.3            1 RES1               0.0000
      5 C5         -12.0021  13.6899  66.3148 C.2            1 RES1               0.0000
      6 C6         -12.0945  12.3516  66.0008 C.2            1 RES1               0.0000
      7 S7         -12.2097  12.3332  64.2986 S.3            1 RES1               0.0000
      8 C8         -12.1392  14.0116  64.0179 C.2            1 RES1               0.0000
      9 C9         -12.0267  14.5428  65.2762 C.2            1 RES1               0.0000
     10 C10        -11.7753  15.6023  67.9143 C.3            1 RES1               0.0000
     11 C11        -11.6140  15.6700  69.4397 C.3            1 RES1               0.0000
     12 C12        -10.6498  14.5517  69.6994 C.3            1 RES1               0.0000
     13 N13         -8.4781  12.8160  68.8170 N.am           1 RES1               0.0000
     14 H14        -11.2359  12.5819  69.0322 H              1 RES1               0.0000
     15 H15        -12.8686  13.8394  68.2784 H              1 RES1               0.0000
     16 H16        -12.0933  11.4954  66.7005 H              1 RES1               0.0000
     17 H17        -12.1773  14.5233  63.0410 H              1 RES1               0.0000
     18 H18        -11.9718  15.6583  65.3472 H              1 RES1               0.0000
     19 H19        -12.6563  16.1714  67.5811 H              1 RES1               0.0000
     20 H20        -10.8970  16.0239  67.4012 H              1 RES1               0.0000
     21 H21        -11.2725  16.6498  69.7758 H              1 RES1               0.0000
     22 H22        -12.5948  15.3671  69.8575 H              1 RES1               0.0000
     23 H23         -9.6336  14.9821  69.7102 H              1 RES1               0.0000
     24 H24        -10.8134  14.0649  70.6823 H              1 RES1               0.0000
     25 H25         -7.5086  12.6331  68.4530 H              1 RES1               0.0000
     26 H26         -8.6213  12.6105  69.8304 H              1 RES1               0.0000
     27 ****        -9.9907  13.8743  66.1938 LP             1 RES1               0.0000
     28 ****        -8.3561  13.3574  66.4407 LP             1 RES1               0.0000
@<TRIPOS>BOND
    1    1    2 2     
    2    2    3 1     
    3    3    4 1     
    4    4    5 1     
    5    5    6 2     
    6    6    7 1     
    7    7    8 1     
    8    8    9 2     
    9    4   10 1     
   10   10   11 1     
   11   11   12 1     
   12    2   13 am    
   13   12    3 1     
   14    9    5 1     
   15    3   14 1     
   16    4   15 1     
   17    6   16 1     
   18    8   17 1     
   19    9   18 1     
   20   10   19 1     
   21   10   20 1     
   22   11   21 1     
   23   11   22 1     
   24   12   23 1     
   25   12   24 1     
   26   13   25 1     
   27   13   26 1     
   28    1   27 1     
   29    1   28 1     
@<TRIPOS>SUBSTRUCTURE
      1 RES1           1
@<TRIPOS>SET
LONE_PAIRS      STATIC     ATOMS    <user>   **** ""
2 27 28
DONOR_HYDROGENS      STATIC     ATOMS    <user>   **** ""
2 25 26
ATOM$BLUE        STATIC     ATOMS    COLORGROUP SYSTEM
2 27 28
ATOM$RED        STATIC     ATOMS    COLORGROUP SYSTEM
2 25 26
@<TRIPOS>COMMENT
> <Gold.Version>
2022.1.0

> <Gold.Id.Protein>
6LU7|6LU7_protein|mol2

> <Gold.Protein.RotatedTorsions>
[ 3973 1471 1470 1467 ] final  152.33 input   60.00 | X-H torsion
[ 3372  414  413  411 ] final  123.08 input   60.00 | X-H torsion
[ 4268 1114 1113 1110 ] final   68.49 input   59.99 | X-H torsion
[ 4409  924  923  921 ] final   57.13 input   59.99 | X-H torsion
[ 4183 1244 1243 1241 ] final  170.98 input   59.99 | X-H torsion
[ 3800  178  177  174 ] final   93.37 input   60.00 | X-H torsion
[ 3793  171  170  167 ] final  -31.11 input   60.00 | X-H torsion
[ 3576  185  184  181 ] final  -60.15 input   60.00 | X-H torsion
[ 3523  346  345  342 ] final  -14.34 input   60.01 | X-H torsion
[ 3515  339  338  335 ] final  172.68 input   60.00 | X-H torsion
[ 3663  154  153  150 ] final  -20.12 input   60.00 | X-H torsion
[ 4280 1130 1129 1126 ] final   16.41 input   60.00 | X-H torsion

> <Gold.Protein.ActiveResidues>
 VAL20   THR21   CYS22   GLY23   THR24   THR25   THR26   LEU27   ASN28   PRO39  
 ARG40   HIS41   VAL42   CYS44   THR45   SER46   ASP48   MET49   LEU50   PRO52  
 TYR54   TYR118  ASN119  ILE136  GLY138  SER139  PHE140  LEU141  ASN142  GLY143 
 SER144  CYS145  GLY146  SER147  TYR161  HIS163  HIS164  MET165  GLU166  LEU167 
 PRO168  THR169  GLY170  VAL171  HIS172  ALA173  PHE181  PHE185  VAL186  ASP187 
 ARG188  GLN189  THR190  ALA191  GLN192  ALA193 

> <Gold.Protein.RotatedAtoms>
  -14.2963   17.2038   76.3860 H   0  0  0  0  0  0  0  0  0  0  0  0  # atno 3372 bound_to 414 
   -2.7209   22.0140   75.4789 H   0  0  0  0  0  0  0  0  0  0  0  0  # atno 3515 bound_to 339 
   -3.6487   17.7445   72.8377 H   0  0  0  0  0  0  0  0  0  0  0  0  # atno 3523 bound_to 346 
   -8.3245   25.0758   63.4536 H   0  0  0  0  0  0  0  0  0  0  0  0  # atno 3576 bound_to 185 
   -8.2107   28.3877   65.4554 H   0  0  0  0  0  0  0  0  0  0  0  0  # atno 3663 bound_to 154 
   -3.2356   24.8817   72.4816 H   0  0  0  0  0  0  0  0  0  0  0  0  # atno 3793 bound_to 171 
   -6.8728   23.9903   72.3426 H   0  0  0  0  0  0  0  0  0  0  0  0  # atno 3800 bound_to 178 
  -15.7117    7.8212   78.4476 H   0  0  0  0  0  0  0  0  0  0  0  0  # atno 3973 bound_to 1471
  -19.9480   13.4503   63.0338 H   0  0  0  0  0  0  0  0  0  0  0  0  # atno 4183 bound_to 1244
  -14.1113   16.2237   61.6305 H   0  0  0  0  0  0  0  0  0  0  0  0  # atno 4268 bound_to 1114
  -15.9449   20.2959   59.2938 H   0  0  0  0  0  0  0  0  0  0  0  0  # atno 4280 bound_to 1130
  -10.8717   15.0235   56.3405 H   0  0  0  0  0  0  0  0  0  0  0  0  # atno 4409 bound_to 924 
  -15.2283    7.6902   76.8993 LP  0  0  0  0  0  0  0  0  0  0  0  0  # atno 4696 bound_to 1471
  -15.0916    9.1166   77.6825 LP  0  0  0  0  0  0  0  0  0  0  0  0  # atno 4697 bound_to 1471
  -14.2391   18.3397   75.2222 LP  0  0  0  0  0  0  0  0  0  0  0  0  # atno 4731 bound_to 414 
  -15.5635   17.3983   75.3838 LP  0  0  0  0  0  0  0  0  0  0  0  0  # atno 4732 bound_to 414 
  -12.5310   16.0012   61.9483 LP  0  0  0  0  0  0  0  0  0  0  0  0  # atno 4733 bound_to 1114
  -13.2664   15.1160   60.7897 LP  0  0  0  0  0  0  0  0  0  0  0  0  # atno 4734 bound_to 1114
  -12.1906   15.4334   57.2010 LP  0  0  0  0  0  0  0  0  0  0  0  0  # atno 4763 bound_to 924 
  -10.8054   15.0309   57.9664 LP  0  0  0  0  0  0  0  0  0  0  0  0  # atno 4764 bound_to 924 
  -20.9879   12.3791   63.6812 LP  0  0  0  0  0  0  0  0  0  0  0  0  # atno 4771 bound_to 1244
  -20.4342   13.6274   64.5766 LP  0  0  0  0  0  0  0  0  0  0  0  0  # atno 4772 bound_to 1244
   -6.1611   22.8987   71.3678 LP  0  0  0  0  0  0  0  0  0  0  0  0  # atno 4775 bound_to 178 
   -7.5817   22.5470   72.0924 LP  0  0  0  0  0  0  0  0  0  0  0  0  # atno 4776 bound_to 178 
   -1.7555   24.2072   72.5293 LP  0  0  0  0  0  0  0  0  0  0  0  0  # atno 4779 bound_to 171 
   -2.9663   23.4698   71.7188 LP  0  0  0  0  0  0  0  0  0  0  0  0  # atno 4780 bound_to 171 
   -7.1491   26.1595   63.1504 LP  0  0  0  0  0  0  0  0  0  0  0  0  # atno 4783 bound_to 185 
   -8.4753   26.6035   63.9935 LP  0  0  0  0  0  0  0  0  0  0  0  0  # atno 4784 bound_to 185 
   -2.3493   16.7952   72.5958 LP  0  0  0  0  0  0  0  0  0  0  0  0  # atno 4785 bound_to 346 
   -2.1593   18.3163   73.1586 LP  0  0  0  0  0  0  0  0  0  0  0  0  # atno 4786 bound_to 346 
   -3.6136   21.6314   74.1733 LP  0  0  0  0  0  0  0  0  0  0  0  0  # atno 4787 bound_to 339 
   -3.1369   20.4639   75.2106 LP  0  0  0  0  0  0  0  0  0  0  0  0  # atno 4788 bound_to 339 
   -6.7073   28.9895   65.2954 LP  0  0  0  0  0  0  0  0  0  0  0  0  # atno 4797 bound_to 154 
   -8.0040   29.9264   64.9677 LP  0  0  0  0  0  0  0  0  0  0  0  0  # atno 4798 bound_to 154 

> <Gold.Score>
     Score     S(PLP)   S(hbond)     S(cho)   S(metal)  DE(clash)   DE(tors)     intcor
     35.38     -26.46       1.00       2.00       0.00       0.00       0.05       0.02

> <Gold.PLP.Fitness>
35.3759

> <Gold.PLP.PLP>
-26.4596

> <Gold.PLP.part.hbond>
-1.0000

> <Gold.PLP.part.metal>
0.0000

> <Gold.PLP.part.buried>
-1.2173

> <Gold.PLP.part.nonpolar>
-25.1006

> <Gold.PLP.part.repulsive>
0.1021

> <Gold.PLP.ligand.clash>
0.0000

> <Gold.PLP.ligand.torsion>
0.0509

> <Gold.PLP.Chemscore.Hbond>
1.0000

> <Gold.PLP.Chemscore.CHOScore>
2.0000

> <Gold.PLP.Chemscore.Metal>
0.0000

> <Gold.Chemscore.Hbonds>
donor molecule, donor type, donor heavy atom, donor atom, acceptor molecule, acceptor atom, score
      L1  H    13    26       P1  1464  1.00
      L1  C     8    17       P1  1092  1.00
      L1  C     8    17       P1  1114  1.00

> <Gold.PLP.Chemscore.Internal.Correction>
0.0181

