unknown|prepared_Mpro-x0967|sdf|1|dock2
  -GOLD-   5 72214353D 1   1.00000     0.00000

 35 35  0  0  0  0  0  0  0  0  1 V2000
  -13.2278   15.3658   72.3539 C   0  0  0  0  0  0  0  0  0  0  0  0
  -12.5114   15.0446   71.0898 C   0  0  0  0  0  0  0  0  0  0  0  0
  -11.8480   15.9121   70.5220 O   0  0  0  0  0  0  0  0  0  0  0  0
  -12.5815   13.7338   70.5452 N   0  0  0  0  0  0  0  0  0  0  0  0
  -11.9781   13.1531   69.4550 C   0  0  0  0  0  0  0  0  0  0  0  0
  -10.9748   13.9730   68.6550 C   0  0  0  0  0  0  0  0  0  0  0  0
  -11.3653   13.8807   67.2163 C   0  0  0  0  0  0  0  0  0  0  0  0
  -11.3100   15.0158   66.4063 C   0  0  0  0  0  0  0  0  0  0  0  0
  -11.7296   14.9641   65.1050 C   0  0  0  0  0  0  0  0  0  0  0  0
  -12.2345   13.7657   64.5246 C   0  0  0  0  0  0  0  0  0  0  0  0
  -12.2904   12.6713   65.2861 C   0  0  0  0  0  0  0  0  0  0  0  0
  -11.8500   12.7435   66.6280 C   0  0  0  0  0  0  0  0  0  0  0  0
  -12.6039   13.9202   63.1740 O   0  0  0  0  0  0  0  0  0  0  0  0
  -11.4590   11.7638   69.5689 C   0  0  0  0  0  0  0  0  0  0  0  0
  -10.8427   11.1734   68.7748 O   0  0  0  0  0  0  0  0  0  0  0  0
  -11.8442   11.2062   70.8962 N   0  0  0  0  0  0  0  0  0  0  0  0
  -11.4666    9.8584   71.1329 C   0  0  0  0  0  0  0  0  0  0  0  0
  -12.7984    9.0927   71.4819 C   0  0  0  0  0  0  0  0  0  0  0  0
  -13.7518    8.5408   71.7133 C   0  0  0  0  0  0  0  0  0  0  0  0
  -15.2999    7.6617   72.0997 Br  0  0  0  0  0  0  0  0  0  0  0  0
  -13.1238   16.3912   72.6962 H   0  0  0  0  0  0  0  0  0  0  0  0
  -12.8368   14.6505   73.1572 H   0  0  0  0  0  0  0  0  0  0  0  0
  -14.3106   15.0668   72.3016 H   0  0  0  0  0  0  0  0  0  0  0  0
  -13.2662   13.0886   71.1106 H   0  0  0  0  0  0  0  0  0  0  0  0
  -12.8601   13.0471   68.6343 H   0  0  0  0  0  0  0  0  0  0  0  0
  -11.1093   15.0577   68.9840 H   0  0  0  0  0  0  0  0  0  0  0  0
   -9.9314   13.7678   68.7838 H   0  0  0  0  0  0  0  0  0  0  0  0
  -10.8947   15.8908   66.8713 H   0  0  0  0  0  0  0  0  0  0  0  0
  -11.6762   15.8832   64.4715 H   0  0  0  0  0  0  0  0  0  0  0  0
  -12.6797   11.7197   64.9533 H   0  0  0  0  0  0  0  0  0  0  0  0
  -11.8825   11.8278   67.2271 H   0  0  0  0  0  0  0  0  0  0  0  0
  -12.7141   14.7695   62.7055 H   0  0  0  0  0  0  0  0  0  0  0  0
  -12.3385   11.7449   71.6138 H   0  0  0  0  0  0  0  0  0  0  0  0
  -11.0176    9.3590   70.2748 H   0  0  0  0  0  0  0  0  0  0  0  0
  -10.8045    9.7414   71.9915 H   0  0  0  0  0  0  0  0  0  0  0  0
  1  2  1  0  0  0  0
  2  3  2  0  0  0  0
  2  4  1  0  0  0  0
  4  5  1  0  0  0  0
  5  6  1  0  0  0  0
  6  7  1  0  0  0  0
  7  8  2  0  0  0  0
  8  9  1  0  0  0  0
  9 10  2  0  0  0  0
 10 11  1  0  0  0  0
 11 12  2  0  0  0  0
 10 13  1  0  0  0  0
  5 14  1  0  0  0  0
 14 15  2  0  0  0  0
 14 16  1  0  0  0  0
 16 17  1  0  0  0  0
 17 18  1  0  0  0  0
 18 19  3  0  0  0  0
 19 20  1  0  0  0  0
 12  7  1  0  0  0  0
  1 21  1  0  0  0  0
  1 22  1  0  0  0  0
  1 23  1  0  0  0  0
  4 24  1  0  0  0  0
  5 25  1  0  0  0  0
  6 26  1  0  0  0  0
  6 27  1  0  0  0  0
  8 28  1  0  0  0  0
  9 29  1  0  0  0  0
 11 30  1  0  0  0  0
 12 31  1  0  0  0  0
 13 32  1  0  0  0  0
 16 33  1  0  0  0  0
 17 34  1  0  0  0  0
 17 35  1  0  0  0  0
M  END
> <Gold.Version>
2022.1.0

> <Gold.Id.Protein>
6LU7|6LU7_protein|mol2

> <Gold.PLP.Fitness>
50.6603

> <Gold.PLP.PLP>
-52.6203

> <Gold.PLP.part.hbond>
-3.3341

> <Gold.PLP.part.metal>
0.0000

> <Gold.PLP.part.buried>
-9.2516

> <Gold.PLP.part.nonpolar>
-41.0500

> <Gold.PLP.part.repulsive>
0.2930

> <Gold.PLP.ligand.clash>
0.0000

> <Gold.PLP.ligand.torsion>
1.3605

> <Gold.PLP.Chemscore.Hbond>
0.0000

> <Gold.PLP.Chemscore.CHOScore>
0.0000

> <Gold.PLP.Chemscore.Metal>
0.0000

> <Gold.PLP.Chemscore.Internal.Correction>
0.7609

> <Gold.Protein.RotatedTorsions>
[ 3973 1471 1470 1467 ] final  -37.34 input   60.00 | X-H torsion
[ 3372  414  413  411 ] final    4.57 input   60.00 | X-H torsion
[ 4268 1114 1113 1110 ] final    0.91 input   59.99 | X-H torsion
[ 4409  924  923  921 ] final -109.82 input   59.99 | X-H torsion
[ 4183 1244 1243 1241 ] final -177.97 input   59.99 | X-H torsion
[ 3800  178  177  174 ] final  -16.30 input   60.00 | X-H torsion
[ 3793  171  170  167 ] final  100.98 input   60.00 | X-H torsion
[ 3576  185  184  181 ] final  152.40 input   60.00 | X-H torsion
[ 3523  346  345  342 ] final -154.17 input   60.01 | X-H torsion
[ 3515  339  338  335 ] final   47.44 input   60.00 | X-H torsion
[ 3663  154  153  150 ] final -145.09 input   60.00 | X-H torsion
[ 4280 1130 1129 1126 ] final   37.93 input   60.00 | X-H torsion

> <Gold.Protein.ActiveResidues>
 VAL20   THR21   CYS22   GLY23   THR24   THR25   THR26   LEU27   ASN28   PRO39  
 ARG40   HIS41   VAL42   CYS44   THR45   SER46   ASP48   MET49   LEU50   PRO52  
 TYR54   TYR118  ASN119  ILE136  GLY138  SER139  PHE140  LEU141  ASN142  GLY143 
 SER144  CYS145  GLY146  SER147  TYR161  HIS163  HIS164  MET165  GLU166  LEU167 
 PRO168  THR169  GLY170  VAL171  HIS172  ALA173  PHE181  PHE185  VAL186  ASP187 
 ARG188  GLN189  THR190  ALA191  GLN192  ALA193 

> <Gold.Protein.RotatedAtoms>
  -14.2244   18.3332   75.2419 H   0  0  0  0  0  0  0  0  0  0  0  0  # atno 3372 bound_to 414 
   -3.6325   21.5474   74.1691 H   0  0  0  0  0  0  0  0  0  0  0  0  # atno 3515 bound_to 339 
   -2.0831   16.9596   72.6785 H   0  0  0  0  0  0  0  0  0  0  0  0  # atno 3523 bound_to 346 
   -7.2862   26.5385   63.3410 H   0  0  0  0  0  0  0  0  0  0  0  0  # atno 3576 bound_to 185 
   -6.7069   29.0680   65.2727 H   0  0  0  0  0  0  0  0  0  0  0  0  # atno 3663 bound_to 154 
   -2.7784   23.4104   71.7376 H   0  0  0  0  0  0  0  0  0  0  0  0  # atno 3793 bound_to 171 
   -6.1056   23.0543   71.4053 H   0  0  0  0  0  0  0  0  0  0  0  0  # atno 3800 bound_to 178 
  -14.9670    8.7267   76.9963 H   0  0  0  0  0  0  0  0  0  0  0  0  # atno 3973 bound_to 1471
  -19.8966   13.5820   63.1458 H   0  0  0  0  0  0  0  0  0  0  0  0  # atno 4183 bound_to 1244
  -13.2225   16.4198   62.1362 H   0  0  0  0  0  0  0  0  0  0  0  0  # atno 4268 bound_to 1114
  -15.7802   20.0786   59.5125 H   0  0  0  0  0  0  0  0  0  0  0  0  # atno 4280 bound_to 1130
  -11.8724   15.3523   57.8737 H   0  0  0  0  0  0  0  0  0  0  0  0  # atno 4409 bound_to 924 
  -15.5215    8.5938   78.5204 LP  0  0  0  0  0  0  0  0  0  0  0  0  # atno 4696 bound_to 1471
  -15.5484    7.3011   77.5231 LP  0  0  0  0  0  0  0  0  0  0  0  0  # atno 4697 bound_to 1471
  -15.5624   17.4154   75.3664 LP  0  0  0  0  0  0  0  0  0  0  0  0  # atno 4731 bound_to 414 
  -14.3125   17.1851   76.3918 LP  0  0  0  0  0  0  0  0  0  0  0  0  # atno 4732 bound_to 414 
  -12.5555   15.2729   61.1941 LP  0  0  0  0  0  0  0  0  0  0  0  0  # atno 4733 bound_to 1114
  -14.1370   15.6468   61.0345 LP  0  0  0  0  0  0  0  0  0  0  0  0  # atno 4734 bound_to 1114
  -10.4012   14.8981   57.3471 LP  0  0  0  0  0  0  0  0  0  0  0  0  # atno 4763 bound_to 924 
  -11.5869   15.2350   56.2760 LP  0  0  0  0  0  0  0  0  0  0  0  0  # atno 4764 bound_to 924 
  -20.9236   12.3739   63.5114 LP  0  0  0  0  0  0  0  0  0  0  0  0  # atno 4771 bound_to 1244
  -20.5504   13.4999   64.6336 LP  0  0  0  0  0  0  0  0  0  0  0  0  # atno 4772 bound_to 1244
   -7.4965   22.4431   71.9884 LP  0  0  0  0  0  0  0  0  0  0  0  0  # atno 4775 bound_to 178 
   -7.0188   23.9451   72.4156 LP  0  0  0  0  0  0  0  0  0  0  0  0  # atno 4776 bound_to 178 
   -3.3737   24.7809   72.3819 LP  0  0  0  0  0  0  0  0  0  0  0  0  # atno 4779 bound_to 171 
   -1.8086   24.3780   72.6157 LP  0  0  0  0  0  0  0  0  0  0  0  0  # atno 4780 bound_to 171 
   -8.7337   26.2394   64.0215 LP  0  0  0  0  0  0  0  0  0  0  0  0  # atno 4783 bound_to 185 
   -7.9364   25.0505   63.2358 LP  0  0  0  0  0  0  0  0  0  0  0  0  # atno 4784 bound_to 185 
   -2.4484   18.4613   73.1879 LP  0  0  0  0  0  0  0  0  0  0  0  0  # atno 4785 bound_to 346 
   -3.6369   17.4407   72.7267 LP  0  0  0  0  0  0  0  0  0  0  0  0  # atno 4786 bound_to 346 
   -3.0896   20.4881   75.2786 LP  0  0  0  0  0  0  0  0  0  0  0  0  # atno 4787 bound_to 339 
   -2.7428   22.0771   75.4244 LP  0  0  0  0  0  0  0  0  0  0  0  0  # atno 4788 bound_to 339 
   -8.0781   29.8929   64.9767 LP  0  0  0  0  0  0  0  0  0  0  0  0  # atno 4797 bound_to 154 
   -8.1477   28.3379   65.4703 LP  0  0  0  0  0  0  0  0  0  0  0  0  # atno 4798 bound_to 154 

$$$$
