unknown|prepared_Mpro-x0426|sdf|1|dock2
  -GOLD-   5 72214353D 1   1.00000     0.00000

 31 32  0  0  0  0  0  0  0  0  1 V2000
  -10.6248   10.8851   66.1041 F   0  0  0  0  0  0  0  0  0  0  0  0
  -11.2962   11.9054   65.5177 C   0  0  0  0  0  0  0  0  0  0  0  0
  -11.5835   11.7011   64.1725 C   0  0  0  0  0  0  0  0  0  0  0  0
  -12.2548   12.6623   63.4851 C   0  0  0  0  0  0  0  0  0  0  0  0
  -12.6376   13.8155   64.1255 C   0  0  0  0  0  0  0  0  0  0  0  0
  -12.3445   14.0007   65.4580 C   0  0  0  0  0  0  0  0  0  0  0  0
  -11.6565   13.0331   66.1926 C   0  0  0  0  0  0  0  0  0  0  0  0
  -11.3686   13.2584   67.5761 C   0  0  0  0  0  0  0  0  0  0  0  0
  -10.5403   12.4584   68.1517 O   0  0  0  0  0  0  0  0  0  0  0  0
  -11.8802   14.2661   68.4285 N   0  0  0  0  0  0  0  0  0  0  0  0
  -11.4845   14.3586   69.8236 C   0  0  0  0  0  0  0  0  0  0  0  0
  -12.4018   13.6634   70.7738 C   0  0  0  0  0  0  0  0  0  0  0  0
  -12.6800   14.5080   71.9605 C   0  0  0  0  0  0  0  0  0  0  0  0
  -11.9228   14.4570   73.0988 C   0  0  0  0  0  0  0  0  0  0  0  0
  -12.2388   15.2679   74.1655 C   0  0  0  0  0  0  0  0  0  0  0  0
  -13.2828   16.1084   74.0995 N   0  0  0  0  0  0  0  0  0  0  0  0
  -14.0487   16.1901   73.0071 C   0  0  0  0  0  0  0  0  0  0  0  0
  -13.7456   15.3779   71.9167 C   0  0  0  0  0  0  0  0  0  0  0  0
  -11.2765   10.7803   63.6657 H   0  0  0  0  0  0  0  0  0  0  0  0
  -12.4781   12.4981   62.4304 H   0  0  0  0  0  0  0  0  0  0  0  0
  -13.1713   14.5868   63.5914 H   0  0  0  0  0  0  0  0  0  0  0  0
  -12.6697   14.9267   65.9106 H   0  0  0  0  0  0  0  0  0  0  0  0
  -12.5540   14.9467   68.0274 H   0  0  0  0  0  0  0  0  0  0  0  0
  -11.4601   15.4297   70.1031 H   0  0  0  0  0  0  0  0  0  0  0  0
  -10.4388   13.9890   69.9733 H   0  0  0  0  0  0  0  0  0  0  0  0
  -11.8856   12.7436   71.1461 H   0  0  0  0  0  0  0  0  0  0  0  0
  -13.3462   13.3010   70.3166 H   0  0  0  0  0  0  0  0  0  0  0  0
  -11.0660   13.7790   73.1729 H   0  0  0  0  0  0  0  0  0  0  0  0
  -11.6121   15.2046   75.0667 H   0  0  0  0  0  0  0  0  0  0  0  0
  -14.8989   16.8544   72.9140 H   0  0  0  0  0  0  0  0  0  0  0  0
  -14.3766   15.4540   71.0337 H   0  0  0  0  0  0  0  0  0  0  0  0
  1  2  1  0  0  0  0
  2  3  2  0  0  0  0
  3  4  1  0  0  0  0
  4  5  2  0  0  0  0
  5  6  1  0  0  0  0
  6  7  2  0  0  0  0
  7  8  1  0  0  0  0
  8  9  2  0  0  0  0
  8 10  1  0  0  0  0
 10 11  1  0  0  0  0
 11 12  1  0  0  0  0
 12 13  1  0  0  0  0
 13 14  2  0  0  0  0
 14 15  1  0  0  0  0
 15 16  2  0  0  0  0
 16 17  1  0  0  0  0
 17 18  2  0  0  0  0
  2  7  1  0  0  0  0
 13 18  1  0  0  0  0
  3 19  1  0  0  0  0
  4 20  1  0  0  0  0
  5 21  1  0  0  0  0
  6 22  1  0  0  0  0
 10 23  1  0  0  0  0
 11 24  1  0  0  0  0
 11 25  1  0  0  0  0
 12 26  1  0  0  0  0
 12 27  1  0  0  0  0
 14 28  1  0  0  0  0
 15 29  1  0  0  0  0
 17 30  1  0  0  0  0
 18 31  1  0  0  0  0
M  END
> <Gold.Version>
2022.1.0

> <Gold.Id.Protein>
6LU7|6LU7_protein|mol2

> <Gold.PLP.Fitness>
51.7840

> <Gold.PLP.PLP>
-50.5830

> <Gold.PLP.part.hbond>
-1.0000

> <Gold.PLP.part.metal>
0.0000

> <Gold.PLP.part.buried>
-6.3202

> <Gold.PLP.part.nonpolar>
-46.0719

> <Gold.PLP.part.repulsive>
1.6843

> <Gold.PLP.ligand.clash>
0.0000

> <Gold.PLP.ligand.torsion>
0.9325

> <Gold.PLP.Chemscore.Hbond>
0.0000

> <Gold.PLP.Chemscore.CHOScore>
1.0000

> <Gold.PLP.Chemscore.Metal>
0.0000

> <Gold.Chemscore.Hbonds>
donor molecule, donor type, donor heavy atom, donor atom, acceptor molecule, acceptor atom, score
      L1  C    15    29       P1   367  1.00

> <Gold.PLP.Chemscore.Internal.Correction>
0.0660

> <Gold.Protein.RotatedTorsions>
[ 3973 1471 1470 1467 ] final   -2.06 input   60.00 | X-H torsion
[ 3372  414  413  411 ] final   87.22 input   60.00 | X-H torsion
[ 4268 1114 1113 1110 ] final  -67.07 input   59.99 | X-H torsion
[ 4409  924  923  921 ] final  -72.86 input   59.99 | X-H torsion
[ 4183 1244 1243 1241 ] final   97.86 input   59.99 | X-H torsion
[ 3800  178  177  174 ] final   28.02 input   60.00 | X-H torsion
[ 3793  171  170  167 ] final -125.71 input   60.00 | X-H torsion
[ 3576  185  184  181 ] final  164.04 input   60.00 | X-H torsion
[ 3523  346  345  342 ] final -169.38 input   60.01 | X-H torsion
[ 3515  339  338  335 ] final -129.94 input   60.00 | X-H torsion
[ 3663  154  153  150 ] final  -40.37 input   60.00 | X-H torsion
[ 4280 1130 1129 1126 ] final  140.24 input   60.00 | X-H torsion

> <Gold.Protein.ActiveResidues>
 VAL20   THR21   CYS22   GLY23   THR24   THR25   THR26   LEU27   ASN28   PRO39  
 ARG40   HIS41   VAL42   CYS44   THR45   SER46   ASP48   MET49   LEU50   PRO52  
 TYR54   TYR118  ASN119  ILE136  GLY138  SER139  PHE140  LEU141  ASN142  GLY143 
 SER144  CYS145  GLY146  SER147  TYR161  HIS163  HIS164  MET165  GLU166  LEU167 
 PRO168  THR169  GLY170  VAL171  HIS172  ALA173  PHE181  PHE185  VAL186  ASP187 
 ARG188  GLN189  THR190  ALA191  GLN192  ALA193 

> <Gold.Protein.RotatedAtoms>
  -13.9279   17.6040   76.1954 H   0  0  0  0  0  0  0  0  0  0  0  0  # atno 3372 bound_to 414 
   -2.6919   21.1542   75.7390 H   0  0  0  0  0  0  0  0  0  0  0  0  # atno 3515 bound_to 339 
   -1.9267   17.1362   72.7545 H   0  0  0  0  0  0  0  0  0  0  0  0  # atno 3523 bound_to 346 
   -7.2083   26.3889   63.2542 H   0  0  0  0  0  0  0  0  0  0  0  0  # atno 3576 bound_to 185 
   -7.9183   28.2458   65.5072 H   0  0  0  0  0  0  0  0  0  0  0  0  # atno 3663 bound_to 154 
   -1.9149   24.5544   72.6865 H   0  0  0  0  0  0  0  0  0  0  0  0  # atno 3793 bound_to 171 
   -6.1325   23.6825   71.7268 H   0  0  0  0  0  0  0  0  0  0  0  0  # atno 3800 bound_to 178 
  -15.0451    8.2033   76.7914 H   0  0  0  0  0  0  0  0  0  0  0  0  # atno 3973 bound_to 1471
  -20.6127   12.5551   63.0590 H   0  0  0  0  0  0  0  0  0  0  0  0  # atno 4183 bound_to 1244
  -12.4332   15.8227   61.7956 H   0  0  0  0  0  0  0  0  0  0  0  0  # atno 4268 bound_to 1114
  -15.6159   18.6883   59.1045 H   0  0  0  0  0  0  0  0  0  0  0  0  # atno 4280 bound_to 1130
  -12.1636   15.4305   57.3625 H   0  0  0  0  0  0  0  0  0  0  0  0  # atno 4409 bound_to 924 
  -15.2951    9.0000   78.1881 LP  0  0  0  0  0  0  0  0  0  0  0  0  # atno 4696 bound_to 1471
  -15.6962    7.4221   78.0617 LP  0  0  0  0  0  0  0  0  0  0  0  0  # atno 4697 bound_to 1471
  -14.7560   18.2755   74.9660 LP  0  0  0  0  0  0  0  0  0  0  0  0  # atno 4731 bound_to 414 
  -15.4176   17.0594   75.8319 LP  0  0  0  0  0  0  0  0  0  0  0  0  # atno 4732 bound_to 414 
  -13.5135   15.1751   60.7654 LP  0  0  0  0  0  0  0  0  0  0  0  0  # atno 4733 bound_to 1114
  -13.9739   16.3460   61.8063 LP  0  0  0  0  0  0  0  0  0  0  0  0  # atno 4734 bound_to 1114
  -10.6803   14.9915   57.8674 LP  0  0  0  0  0  0  0  0  0  0  0  0  # atno 4763 bound_to 924 
  -11.0145   15.0629   56.2706 LP  0  0  0  0  0  0  0  0  0  0  0  0  # atno 4764 bound_to 924 
  -20.8814   13.0253   64.5936 LP  0  0  0  0  0  0  0  0  0  0  0  0  # atno 4771 bound_to 1244
  -19.8714   13.8826   63.6388 LP  0  0  0  0  0  0  0  0  0  0  0  0  # atno 4772 bound_to 1244
   -6.9478   22.2834   71.5652 LP  0  0  0  0  0  0  0  0  0  0  0  0  # atno 4775 bound_to 178 
   -7.5405   23.4722   72.5151 LP  0  0  0  0  0  0  0  0  0  0  0  0  # atno 4776 bound_to 178 
   -2.5684   23.3712   71.7806 LP  0  0  0  0  0  0  0  0  0  0  0  0  # atno 4779 bound_to 171 
   -3.4835   24.6354   72.2612 LP  0  0  0  0  0  0  0  0  0  0  0  0  # atno 4780 bound_to 171 
   -8.6422   26.4071   64.0233 LP  0  0  0  0  0  0  0  0  0  0  0  0  # atno 4783 bound_to 185 
   -8.1063   25.0335   63.3214 LP  0  0  0  0  0  0  0  0  0  0  0  0  # atno 4784 bound_to 185 
   -2.6941   18.5052   73.1844 LP  0  0  0  0  0  0  0  0  0  0  0  0  # atno 4785 bound_to 346 
   -3.5487   17.2189   72.6538 LP  0  0  0  0  0  0  0  0  0  0  0  0  # atno 4786 bound_to 346 
   -3.1977   22.2673   74.6652 LP  0  0  0  0  0  0  0  0  0  0  0  0  # atno 4787 bound_to 339 
   -3.5820   20.6939   74.4568 LP  0  0  0  0  0  0  0  0  0  0  0  0  # atno 4788 bound_to 339 
   -6.7230   29.3049   65.1946 LP  0  0  0  0  0  0  0  0  0  0  0  0  # atno 4797 bound_to 154 
   -8.2829   29.7539   65.0163 LP  0  0  0  0  0  0  0  0  0  0  0  0  # atno 4798 bound_to 154 

$$$$
