#       Name:                unknown
#       Creating user name   williammccorkindale
#       Creation time:       Tue Jun  7 14:55:42 2022


#       File generated by GOLD software.
#

@<TRIPOS>MOLECULE
unknown|prepared_Mpro-x0387|mol2|1|dock1
    31    32     1
SMALL
NO_CHARGES


@<TRIPOS>ATOM
      1 O1          -8.9852  13.7836  66.3997 O.3            1 RES1               0.0000
      2 C2         -10.1176  14.5718  66.5931 C.3            1 RES1               0.0000
      3 C3          -9.6710  15.8855  67.1667 C.3            1 RES1               0.0000
      4 C4         -10.6448  16.5017  68.1184 C.3            1 RES1               0.0000
      5 N5         -11.2471  15.6370  69.0741 N.3            1 RES1               0.0000
      6 C6         -10.9774  15.9969  70.4308 C.3            1 RES1               0.0000
      7 C7         -12.0564  15.5856  71.4035 C.2            1 RES1               0.0000
      8 C8         -12.0489  15.8272  72.7140 C.2            1 RES1               0.0000
      9 C9         -13.0919  15.3891  73.4630 C.2            1 RES1               0.0000
     10 S10        -14.0996  14.6235  72.2943 S.3            1 RES1               0.0000
     11 C11        -13.1448  14.8974  70.9065 C.2            1 RES1               0.0000
     12 C12        -10.7103  14.2991  68.9098 C.3            1 RES1               0.0000
     13 C13        -11.0606  13.8357  67.5150 C.3            1 RES1               0.0000
     14 H14         -8.5478  13.9794  65.5107 H              1 RES1               0.0000
     15 H15        -10.6122  14.6742  65.6071 H              1 RES1               0.0000
     16 H16         -8.6857  15.7892  67.6660 H              1 RES1               0.0000
     17 H17         -9.5248  16.5820  66.3153 H              1 RES1               0.0000
     18 H18        -11.4672  16.9957  67.5193 H              1 RES1               0.0000
     19 H19        -10.1547  17.3343  68.6641 H              1 RES1               0.0000
     20 H20        -10.0280  15.5852  70.7739 H              1 RES1               0.0000
     21 H21        -10.8547  17.1194  70.4471 H              1 RES1               0.0000
     22 H22        -11.2291  16.3748  73.2237 H              1 RES1               0.0000
     23 H23        -13.2668  15.4878  74.5395 H              1 RES1               0.0000
     24 H24        -13.3693  14.5873  69.8755 H              1 RES1               0.0000
     25 H25         -9.6023  14.2958  68.9798 H              1 RES1               0.0000
     26 H26        -11.1412  13.5683  69.6115 H              1 RES1               0.0000
     27 H27        -12.0992  14.1585  67.3170 H              1 RES1               0.0000
     28 H28        -10.9552  12.7409  67.3831 H              1 RES1               0.0000
     29 ****        -9.2510  12.8200  66.4264 LP             1 RES1               0.0000
     30 ****        -8.3305  13.9693  67.1324 LP             1 RES1               0.0000
     31 ****       -12.2314  15.6996  68.9095 LP             1 RES1               0.0000
@<TRIPOS>BOND
    1    1    2 1     
    2    2    3 1     
    3    3    4 1     
    4    4    5 1     
    5    5    6 1     
    6    6    7 1     
    7    7    8 1     
    8    8    9 2     
    9    9   10 1     
   10   10   11 1     
   11    5   12 1     
   12   12   13 1     
   13   13    2 1     
   14    7   11 2     
   15    1   14 1     
   16    2   15 1     
   17    3   16 1     
   18    3   17 1     
   19    4   18 1     
   20    4   19 1     
   21    6   20 1     
   22    6   21 1     
   23    8   22 1     
   24    9   23 1     
   25   11   24 1     
   26   12   25 1     
   27   12   26 1     
   28   13   27 1     
   29   13   28 1     
   30    1   29 1     
   31    1   30 1     
   32    5   31 1     
@<TRIPOS>SUBSTRUCTURE
      1 RES1           1
@<TRIPOS>SET
LONE_PAIRS      STATIC     ATOMS    <user>   **** ""
3 29 30 31
DONOR_HYDROGENS      STATIC     ATOMS    <user>   **** ""
1 14
ATOM$BLUE        STATIC     ATOMS    COLORGROUP SYSTEM
3 29 30 31
ATOM$RED        STATIC     ATOMS    COLORGROUP SYSTEM
1 14
@<TRIPOS>COMMENT
> <Gold.Version>
2022.1.0

> <Gold.Id.Protein>
6LU7|6LU7_protein|mol2

> <Gold.Protein.RotatedTorsions>
[ 3973 1471 1470 1467 ] final   22.29 input   60.00 | X-H torsion
[ 3372  414  413  411 ] final -102.73 input   60.00 | X-H torsion
[ 4268 1114 1113 1110 ] final -123.57 input   59.99 | X-H torsion
[ 4409  924  923  921 ] final   65.03 input   59.99 | X-H torsion
[ 4183 1244 1243 1241 ] final   95.73 input   59.99 | X-H torsion
[ 3800  178  177  174 ] final  124.98 input   60.00 | X-H torsion
[ 3793  171  170  167 ] final -158.69 input   60.00 | X-H torsion
[ 3576  185  184  181 ] final  -59.88 input   60.00 | X-H torsion
[ 3523  346  345  342 ] final  -85.12 input   60.01 | X-H torsion
[ 3515  339  338  335 ] final   69.87 input   60.00 | X-H torsion
[ 3663  154  153  150 ] final -146.92 input   60.00 | X-H torsion
[ 4280 1130 1129 1126 ] final   -3.74 input   60.00 | X-H torsion

> <Gold.Protein.ActiveResidues>
 VAL20   THR21   CYS22   GLY23   THR24   THR25   THR26   LEU27   ASN28   PRO39  
 ARG40   HIS41   VAL42   CYS44   THR45   SER46   ASP48   MET49   LEU50   PRO52  
 TYR54   TYR118  ASN119  ILE136  GLY138  SER139  PHE140  LEU141  ASN142  GLY143 
 SER144  CYS145  GLY146  SER147  TYR161  HIS163  HIS164  MET165  GLU166  LEU167 
 PRO168  THR169  GLY170  VAL171  HIS172  ALA173  PHE181  PHE185  VAL186  ASP187 
 ARG188  GLN189  THR190  ALA191  GLN192  ALA193 

> <Gold.Protein.RotatedAtoms>
  -15.5247   17.5693   75.2317 H   0  0  0  0  0  0  0  0  0  0  0  0  # atno 3372 bound_to 414 
   -3.5207   21.8816   74.2605 H   0  0  0  0  0  0  0  0  0  0  0  0  # atno 3515 bound_to 339 
   -3.1294   16.8364   72.5517 H   0  0  0  0  0  0  0  0  0  0  0  0  # atno 3523 bound_to 346 
   -8.3280   25.0770   63.4559 H   0  0  0  0  0  0  0  0  0  0  0  0  # atno 3576 bound_to 185 
   -6.7061   29.0964   65.2637 H   0  0  0  0  0  0  0  0  0  0  0  0  # atno 3663 bound_to 154 
   -1.7484   24.1011   72.4651 H   0  0  0  0  0  0  0  0  0  0  0  0  # atno 3793 bound_to 171 
   -7.2997   23.7595   72.4997 H   0  0  0  0  0  0  0  0  0  0  0  0  # atno 3800 bound_to 178 
  -15.1664    7.8308   76.8405 H   0  0  0  0  0  0  0  0  0  0  0  0  # atno 3973 bound_to 1471
  -20.6341   12.5373   63.0799 H   0  0  0  0  0  0  0  0  0  0  0  0  # atno 4183 bound_to 1244
  -12.6035   15.2449   61.1456 H   0  0  0  0  0  0  0  0  0  0  0  0  # atno 4268 bound_to 1114
  -16.1035   20.3990   59.0263 H   0  0  0  0  0  0  0  0  0  0  0  0  # atno 4280 bound_to 1130
  -10.7666   14.9932   56.4086 H   0  0  0  0  0  0  0  0  0  0  0  0  # atno 4409 bound_to 924 
  -15.1446    9.1157   77.8387 LP  0  0  0  0  0  0  0  0  0  0  0  0  # atno 4696 bound_to 1471
  -15.7245    7.6815   78.3617 LP  0  0  0  0  0  0  0  0  0  0  0  0  # atno 4697 bound_to 1471
  -14.4923   17.0795   76.3903 LP  0  0  0  0  0  0  0  0  0  0  0  0  # atno 4731 bound_to 414 
  -14.0732   18.2904   75.3781 LP  0  0  0  0  0  0  0  0  0  0  0  0  # atno 4732 bound_to 414 
  -14.1646   15.6991   61.0785 LP  0  0  0  0  0  0  0  0  0  0  0  0  # atno 4733 bound_to 1114
  -13.1514   16.4039   62.1478 LP  0  0  0  0  0  0  0  0  0  0  0  0  # atno 4734 bound_to 1114
  -12.1871   15.4299   57.0713 LP  0  0  0  0  0  0  0  0  0  0  0  0  # atno 4763 bound_to 924 
  -10.9147   15.0649   58.0275 LP  0  0  0  0  0  0  0  0  0  0  0  0  # atno 4764 bound_to 924 
  -20.8652   13.0540   64.6055 LP  0  0  0  0  0  0  0  0  0  0  0  0  # atno 4771 bound_to 1244
  -19.8660   13.8719   63.6059 LP  0  0  0  0  0  0  0  0  0  0  0  0  # atno 4772 bound_to 1244
   -6.0517   23.3739   71.5292 LP  0  0  0  0  0  0  0  0  0  0  0  0  # atno 4775 bound_to 178 
   -7.2612   22.3041   71.7727 LP  0  0  0  0  0  0  0  0  0  0  0  0  # atno 4776 bound_to 178 
   -3.0766   23.5277   71.7201 LP  0  0  0  0  0  0  0  0  0  0  0  0  # atno 4779 bound_to 171 
   -3.1431   24.9355   72.5448 LP  0  0  0  0  0  0  0  0  0  0  0  0  # atno 4780 bound_to 171 
   -7.1487   26.1554   63.1490 LP  0  0  0  0  0  0  0  0  0  0  0  0  # atno 4783 bound_to 185 
   -8.4721   26.6064   63.9927 LP  0  0  0  0  0  0  0  0  0  0  0  0  # atno 4784 bound_to 185 
   -1.7834   17.6589   72.9515 LP  0  0  0  0  0  0  0  0  0  0  0  0  # atno 4785 bound_to 346 
   -3.2482   18.3671   73.0910 LP  0  0  0  0  0  0  0  0  0  0  0  0  # atno 4786 bound_to 346 
   -3.2908   20.4384   74.9762 LP  0  0  0  0  0  0  0  0  0  0  0  0  # atno 4787 bound_to 339 
   -2.6541   21.7902   75.6348 LP  0  0  0  0  0  0  0  0  0  0  0  0  # atno 4788 bound_to 339 
   -8.1044   29.8791   64.9805 LP  0  0  0  0  0  0  0  0  0  0  0  0  # atno 4797 bound_to 154 
   -8.1222   28.3231   65.4756 LP  0  0  0  0  0  0  0  0  0  0  0  0  # atno 4798 bound_to 154 

> <Gold.Score>
     Score     S(PLP)   S(hbond)     S(cho)   S(metal)  DE(clash)   DE(tors)     intcor
     41.57     -35.03       0.83       1.58       0.00       0.00       0.34       0.01

> <Gold.PLP.Fitness>
41.5684

> <Gold.PLP.PLP>
-35.0305

> <Gold.PLP.part.hbond>
-1.0000

> <Gold.PLP.part.metal>
0.0000

> <Gold.PLP.part.buried>
-4.8262

> <Gold.PLP.part.nonpolar>
-30.1888

> <Gold.PLP.part.repulsive>
0.1362

> <Gold.PLP.ligand.clash>
0.0000

> <Gold.PLP.ligand.torsion>
0.3447

> <Gold.PLP.Chemscore.Hbond>
0.8288

> <Gold.PLP.Chemscore.CHOScore>
1.5781

> <Gold.PLP.Chemscore.Metal>
0.0000

> <Gold.Chemscore.Hbonds>
donor molecule, donor type, donor heavy atom, donor atom, acceptor molecule, acceptor atom, score
      L1  H     1    14       P1  1103  0.83
      L1  C     9    23       P1  1441  0.58
      L1  C    11    24       P1  1266  1.00

> <Gold.PLP.Chemscore.Internal.Correction>
0.0066

