#       Name:                /Users/williammccorkindale/ml_physics/smi2wyck/notebooks/docking/mpro_fragments/prepared_Mpro-x0946.mol2
#       Creating user name   williammccorkindale
#       Creation time:       Tue Jun  7 14:55:40 2022


#       File generated by GOLD software.
#

@<TRIPOS>MOLECULE
/Users/williammccorkindale/ml_physics/smi2wyck/notebooks/docking/mpro_fragments/prepared_Mpro-x0946.mol2
    18    18     1
SMALL
NO_CHARGES


@<TRIPOS>ATOM
      1 Br1          4.4069   0.1732   0.0313 Br             1 RES1               0.0000
      2 C2           2.5130   0.0029  -0.0316 C.ar           1 RES1               0.0000
      3 C3           1.7807  -0.5748   0.9992 C.ar           1 RES1               0.0000
      4 C4           0.4036  -0.6775   0.9100 C.ar           1 RES1               0.0000
      5 C5          -0.2859  -0.2158  -0.1925 C.ar           1 RES1               0.0000
      6 S6          -2.0281  -0.3597  -0.2767 S.o2           1 RES1               0.0000
      7 N7          -2.7107   1.0818   0.4183 N.3            1 RES1               0.0000
      8 O8          -2.5126  -0.4761  -1.6678 O.2            1 RES1               0.0000
      9 O9          -2.4299  -1.4977   0.5982 O.2            1 RES1               0.0000
     10 C10          0.4380   0.3584  -1.2179 C.ar           1 RES1               0.0000
     11 C11          1.8318   0.4677  -1.1386 C.ar           1 RES1               0.0000
     12 H12          2.3293  -0.9327   1.8569 H              1 RES1               0.0000
     13 H13         -0.1633  -1.1322   1.7234 H              1 RES1               0.0000
     14 H14         -2.1471   1.2672   1.2942 H              1 RES1               0.0000
     15 H15         -3.6842   0.8827   0.7149 H              1 RES1               0.0000
     16 H16         -0.1199   0.7124  -2.0696 H              1 RES1               0.0000
     17 H17          2.3784   0.9201  -1.9516 H              1 RES1               0.0000
     18 ****        -2.6983   1.8455  -0.2272 LP             1 RES1               0.0000
@<TRIPOS>BOND
    1    1    2 1     
    2    2    3 ar    
    3    3    4 ar    
    4    4    5 ar    
    5    5    6 1     
    6    6    7 1     
    7    6    8 2     
    8    6    9 2     
    9    5   10 ar    
   10   10   11 ar    
   11   11    2 ar    
   12    3   12 1     
   13    4   13 1     
   14    7   14 1     
   15    7   15 1     
   16   10   16 1     
   17   11   17 1     
   18    7   18 1     
@<TRIPOS>SUBSTRUCTURE
      1 RES1           1
@<TRIPOS>SET
LONE_PAIRS      STATIC     ATOMS    <user>   **** ""
3 18 8 9
DONOR_HYDROGENS      STATIC     ATOMS    <user>   **** ""
2 14 15
ATOM$BLUE        STATIC     ATOMS    COLORGROUP SYSTEM
3 18 8 9
ATOM$RED        STATIC     ATOMS    COLORGROUP SYSTEM
2 14 15
