unknown|prepared_Mpro-x0072|sdf|1|dock3
  -GOLD-   5 72214353D 1   1.00000     0.00000

 26 26  0  0  0  0  0  0  0  0  1 V2000
   -8.1743   17.7557   66.8544 C   0  0  0  0  0  0  0  0  0  0  0  0
   -9.9080   17.4626   66.8748 S   0  0  0  0  0  0  0  0  0  0  0  0
  -10.5817   18.6157   67.5583 O   0  0  0  0  0  0  0  0  0  0  0  0
  -10.4398   17.3677   65.4808 O   0  0  0  0  0  0  0  0  0  0  0  0
  -10.1966   15.9769   67.7134 N   0  0  0  0  0  0  0  0  0  0  0  0
  -10.9775   16.2873   68.8936 C   0  0  0  0  0  0  0  0  0  0  0  0
  -11.5558   15.0530   69.5354 C   0  0  0  0  0  0  0  0  0  0  0  0
  -12.1893   15.3217   70.8365 C   0  0  0  0  0  0  0  0  0  0  0  0
  -13.4722   14.9569   71.1632 C   0  0  0  0  0  0  0  0  0  0  0  0
  -14.0126   15.2319   72.3896 C   0  0  0  0  0  0  0  0  0  0  0  0
  -13.2940   15.8908   73.3613 C   0  0  0  0  0  0  0  0  0  0  0  0
  -12.0029   16.2656   73.0521 C   0  0  0  0  0  0  0  0  0  0  0  0
  -11.4579   15.9828   71.8014 C   0  0  0  0  0  0  0  0  0  0  0  0
   -7.8075   17.7563   65.8150 H   0  0  0  0  0  0  0  0  0  0  0  0
   -7.8843   18.7226   67.3048 H   0  0  0  0  0  0  0  0  0  0  0  0
   -7.6050   16.9699   67.3910 H   0  0  0  0  0  0  0  0  0  0  0  0
  -10.6149   15.2584   67.1181 H   0  0  0  0  0  0  0  0  0  0  0  0
  -11.8281   16.9179   68.5608 H   0  0  0  0  0  0  0  0  0  0  0  0
  -10.4030   16.8326   69.6468 H   0  0  0  0  0  0  0  0  0  0  0  0
  -12.3276   14.6485   68.8491 H   0  0  0  0  0  0  0  0  0  0  0  0
  -10.7814   14.2377   69.6114 H   0  0  0  0  0  0  0  0  0  0  0  0
  -14.0639   14.4450   70.4410 H   0  0  0  0  0  0  0  0  0  0  0  0
  -15.0231   14.9351   72.6230 H   0  0  0  0  0  0  0  0  0  0  0  0
  -13.6663   16.1296   74.3314 H   0  0  0  0  0  0  0  0  0  0  0  0
  -11.4060   16.7917   73.8051 H   0  0  0  0  0  0  0  0  0  0  0  0
  -10.4516   16.2868   71.5903 H   0  0  0  0  0  0  0  0  0  0  0  0
  1  2  1  0  0  0  0
  2  3  2  0  0  0  0
  2  4  2  0  0  0  0
  2  5  1  0  0  0  0
  5  6  1  0  0  0  0
  6  7  1  0  0  0  0
  7  8  1  0  0  0  0
  8  9  2  0  0  0  0
  9 10  1  0  0  0  0
 10 11  2  0  0  0  0
 11 12  1  0  0  0  0
 12 13  2  0  0  0  0
  8 13  1  0  0  0  0
  1 14  1  0  0  0  0
  1 15  1  0  0  0  0
  1 16  1  0  0  0  0
  5 17  1  0  0  0  0
  6 18  1  0  0  0  0
  6 19  1  0  0  0  0
  7 20  1  0  0  0  0
  7 21  1  0  0  0  0
  9 22  1  0  0  0  0
 10 23  1  0  0  0  0
 11 24  1  0  0  0  0
 12 25  1  0  0  0  0
 13 26  1  0  0  0  0
M  END
> <Gold.Version>
2022.1.0

> <Gold.Id.Protein>
6LU7|6LU7_protein|mol2

> <Gold.PLP.Fitness>
41.3916

> <Gold.PLP.PLP>
-38.5874

> <Gold.PLP.part.hbond>
-1.0000

> <Gold.PLP.part.metal>
0.0000

> <Gold.PLP.part.buried>
-5.5580

> <Gold.PLP.part.nonpolar>
-32.7003

> <Gold.PLP.part.repulsive>
0.1116

> <Gold.PLP.ligand.clash>
0.0000

> <Gold.PLP.ligand.torsion>
0.1150

> <Gold.PLP.Chemscore.Hbond>
0.9913

> <Gold.PLP.Chemscore.CHOScore>
0.0000

> <Gold.PLP.Chemscore.Metal>
0.0000

> <Gold.Chemscore.Hbonds>
donor molecule, donor type, donor heavy atom, donor atom, acceptor molecule, acceptor atom, score
      P1  H  1105  4261       L1     4  0.99

> <Gold.PLP.Chemscore.Internal.Correction>
0.0605

> <Gold.Protein.RotatedTorsions>
[ 3973 1471 1470 1467 ] final -136.18 input   60.00 | X-H torsion
[ 3372  414  413  411 ] final   13.00 input   60.00 | X-H torsion
[ 4268 1114 1113 1110 ] final -123.97 input   59.99 | X-H torsion
[ 4409  924  923  921 ] final  -67.95 input   59.99 | X-H torsion
[ 4183 1244 1243 1241 ] final  -64.31 input   59.99 | X-H torsion
[ 3800  178  177  174 ] final  -66.54 input   60.00 | X-H torsion
[ 3793  171  170  167 ] final  -37.39 input   60.00 | X-H torsion
[ 3576  185  184  181 ] final -113.58 input   60.00 | X-H torsion
[ 3523  346  345  342 ] final  117.15 input   60.01 | X-H torsion
[ 3515  339  338  335 ] final  -78.98 input   60.00 | X-H torsion
[ 3663  154  153  150 ] final   52.68 input   60.00 | X-H torsion
[ 4280 1130 1129 1126 ] final   31.79 input   60.00 | X-H torsion

> <Gold.Protein.ActiveResidues>
 VAL20   THR21   CYS22   GLY23   THR24   THR25   THR26   LEU27   ASN28   PRO39  
 ARG40   HIS41   VAL42   CYS44   THR45   SER46   ASP48   MET49   LEU50   PRO52  
 TYR54   TYR118  ASN119  ILE136  GLY138  SER139  PHE140  LEU141  ASN142  GLY143 
 SER144  CYS145  GLY146  SER147  TYR161  HIS163  HIS164  MET165  GLU166  LEU167 
 PRO168  THR169  GLY170  VAL171  HIS172  ALA173  PHE181  PHE185  VAL186  ASP187 
 ARG188  GLN189  THR190  ALA191  GLN192  ALA193 

> <Gold.Protein.RotatedAtoms>
  -14.1245   18.3065   75.3327 H   0  0  0  0  0  0  0  0  0  0  0  0  # atno 3372 bound_to 414 
   -3.0353   20.5340   75.3565 H   0  0  0  0  0  0  0  0  0  0  0  0  # atno 3515 bound_to 339 
   -2.0255   18.1882   73.1255 H   0  0  0  0  0  0  0  0  0  0  0  0  # atno 3523 bound_to 346 
   -7.5758   25.2223   63.0978 H   0  0  0  0  0  0  0  0  0  0  0  0  # atno 3576 bound_to 185 
   -8.5204   29.4025   65.1252 H   0  0  0  0  0  0  0  0  0  0  0  0  # atno 3663 bound_to 154 
   -3.1562   24.9238   72.5310 H   0  0  0  0  0  0  0  0  0  0  0  0  # atno 3793 bound_to 171 
   -6.5926   22.4260   71.4076 H   0  0  0  0  0  0  0  0  0  0  0  0  # atno 3800 bound_to 178 
  -15.3860    8.8607   78.3486 H   0  0  0  0  0  0  0  0  0  0  0  0  # atno 3973 bound_to 1471
  -20.4855   13.5733   64.5981 H   0  0  0  0  0  0  0  0  0  0  0  0  # atno 4183 bound_to 1244
  -12.6076   15.2421   61.1413 H   0  0  0  0  0  0  0  0  0  0  0  0  # atno 4268 bound_to 1114
  -15.8253   20.1504   59.4591 H   0  0  0  0  0  0  0  0  0  0  0  0  # atno 4280 bound_to 1130
  -12.1768   15.4330   57.2835 H   0  0  0  0  0  0  0  0  0  0  0  0  # atno 4409 bound_to 924 
  -15.6504    7.3337   77.8523 LP  0  0  0  0  0  0  0  0  0  0  0  0  # atno 4696 bound_to 1471
  -14.9976    8.4263   76.8292 LP  0  0  0  0  0  0  0  0  0  0  0  0  # atno 4697 bound_to 1471
  -15.5453   17.5154   75.2719 LP  0  0  0  0  0  0  0  0  0  0  0  0  # atno 4731 bound_to 414 
  -14.4303   17.1121   76.3948 LP  0  0  0  0  0  0  0  0  0  0  0  0  # atno 4732 bound_to 414 
  -14.1668   15.7038   61.0826 LP  0  0  0  0  0  0  0  0  0  0  0  0  # atno 4733 bound_to 1114
  -13.1450   16.4020   62.1480 LP  0  0  0  0  0  0  0  0  0  0  0  0  # atno 4734 bound_to 1114
  -10.7396   15.0103   57.9189 LP  0  0  0  0  0  0  0  0  0  0  0  0  # atno 4763 bound_to 924 
  -10.9419   15.0415   56.2988 LP  0  0  0  0  0  0  0  0  0  0  0  0  # atno 4764 bound_to 924 
  -19.9180   13.5093   63.0744 LP  0  0  0  0  0  0  0  0  0  0  0  0  # atno 4771 bound_to 1244
  -20.9628   12.3733   63.6080 LP  0  0  0  0  0  0  0  0  0  0  0  0  # atno 4772 bound_to 1244
   -7.6794   23.0929   72.4187 LP  0  0  0  0  0  0  0  0  0  0  0  0  # atno 4775 bound_to 178 
   -6.3455   23.9280   71.9831 LP  0  0  0  0  0  0  0  0  0  0  0  0  # atno 4776 bound_to 178 
   -1.7436   24.1177   72.4792 LP  0  0  0  0  0  0  0  0  0  0  0  0  # atno 4779 bound_to 171 
   -3.0581   23.5169   71.7192 LP  0  0  0  0  0  0  0  0  0  0  0  0  # atno 4780 bound_to 171 
   -7.5550   26.7835   63.5561 LP  0  0  0  0  0  0  0  0  0  0  0  0  # atno 4783 bound_to 185 
   -8.8234   25.8319   63.9462 LP  0  0  0  0  0  0  0  0  0  0  0  0  # atno 4784 bound_to 185 
   -3.6145   17.9186   72.9006 LP  0  0  0  0  0  0  0  0  0  0  0  0  # atno 4785 bound_to 346 
   -2.5288   16.7461   72.5640 LP  0  0  0  0  0  0  0  0  0  0  0  0  # atno 4786 bound_to 346 
   -2.7805   22.1412   75.3494 LP  0  0  0  0  0  0  0  0  0  0  0  0  # atno 4787 bound_to 339 
   -3.6533   21.4447   74.1578 LP  0  0  0  0  0  0  0  0  0  0  0  0  # atno 4788 bound_to 339 
   -7.4818   28.2150   65.5245 LP  0  0  0  0  0  0  0  0  0  0  0  0  # atno 4797 bound_to 154 
   -6.9176   29.6788   65.0711 LP  0  0  0  0  0  0  0  0  0  0  0  0  # atno 4798 bound_to 154 

$$$$
