unknown|prepared_Mpro-x0946|sdf|1|dock3
  -GOLD-   5 72214353D 1   1.00000     0.00000

 17 17  0  0  0  0  0  0  0  0  1 V2000
  -13.2081   16.0217   73.5392 Br  0  0  0  0  0  0  0  0  0  0  0  0
  -12.6263   14.9452   72.0644 C   0  0  0  0  0  0  0  0  0  0  0  0
  -11.9075   15.5021   71.0293 C   0  0  0  0  0  0  0  0  0  0  0  0
  -11.4752   14.7415   69.9500 C   0  0  0  0  0  0  0  0  0  0  0  0
  -11.7548   13.3902   69.8792 C   0  0  0  0  0  0  0  0  0  0  0  0
  -11.2298   12.3919   68.5374 S   0  0  0  0  0  0  0  0  0  0  0  0
   -9.8219   11.5468   69.0048 N   0  0  0  0  0  0  0  0  0  0  0  0
  -11.0422   13.2599   67.3490 O   0  0  0  0  0  0  0  0  0  0  0  0
  -12.2999   11.3926   68.2251 O   0  0  0  0  0  0  0  0  0  0  0  0
  -12.4752   12.8388   70.9195 C   0  0  0  0  0  0  0  0  0  0  0  0
  -12.9044   13.6014   71.9942 C   0  0  0  0  0  0  0  0  0  0  0  0
  -11.6731   16.5512   71.0535 H   0  0  0  0  0  0  0  0  0  0  0  0
  -10.9137   15.1706   69.1389 H   0  0  0  0  0  0  0  0  0  0  0  0
   -9.2999   11.9695   69.7849 H   0  0  0  0  0  0  0  0  0  0  0  0
   -9.2348   11.2271   68.2122 H   0  0  0  0  0  0  0  0  0  0  0  0
  -12.6932   11.7631   70.8551 H   0  0  0  0  0  0  0  0  0  0  0  0
  -13.4654   13.1496   72.7951 H   0  0  0  0  0  0  0  0  0  0  0  0
  1  2  1  0  0  0  0
  2  3  2  0  0  0  0
  3  4  1  0  0  0  0
  4  5  2  0  0  0  0
  5  6  1  0  0  0  0
  6  7  1  0  0  0  0
  6  8  2  0  0  0  0
  6  9  2  0  0  0  0
  5 10  1  0  0  0  0
 10 11  2  0  0  0  0
 11  2  1  0  0  0  0
  3 12  1  0  0  0  0
  4 13  1  0  0  0  0
  7 14  1  0  0  0  0
  7 15  1  0  0  0  0
 10 16  1  0  0  0  0
 11 17  1  0  0  0  0
M  END
> <Gold.Version>
2022.1.0

> <Gold.Id.Protein>
6LU7|6LU7_protein|mol2

> <Gold.PLP.Fitness>
35.9566

> <Gold.PLP.PLP>
-30.0793

> <Gold.PLP.part.hbond>
-2.0000

> <Gold.PLP.part.metal>
0.0000

> <Gold.PLP.part.buried>
-3.0773

> <Gold.PLP.part.nonpolar>
-25.9328

> <Gold.PLP.part.repulsive>
0.1267

> <Gold.PLP.ligand.clash>
0.0000

> <Gold.PLP.ligand.torsion>
1.1389

> <Gold.PLP.Chemscore.Hbond>
2.0000

> <Gold.PLP.Chemscore.CHOScore>
0.0000

> <Gold.PLP.Chemscore.Metal>
0.0000

> <Gold.Chemscore.Hbonds>
donor molecule, donor type, donor heavy atom, donor atom, acceptor molecule, acceptor atom, score
      L1  H     7    14       P1  1464  1.00
      P1  H  1281  4132       L1     9  1.00

> <Gold.PLP.Chemscore.Internal.Correction>
2.1550

> <Gold.Protein.RotatedTorsions>
[ 3973 1471 1470 1467 ] final  -26.74 input   60.00 | X-H torsion
[ 3372  414  413  411 ] final -176.24 input   60.00 | X-H torsion
[ 4268 1114 1113 1110 ] final  152.34 input   59.99 | X-H torsion
[ 4409  924  923  921 ] final   34.75 input   59.99 | X-H torsion
[ 4183 1244 1243 1241 ] final   91.22 input   59.99 | X-H torsion
[ 3800  178  177  174 ] final   74.76 input   60.00 | X-H torsion
[ 3793  171  170  167 ] final  160.41 input   60.00 | X-H torsion
[ 3576  185  184  181 ] final    8.50 input   60.00 | X-H torsion
[ 3523  346  345  342 ] final  176.79 input   60.01 | X-H torsion
[ 3515  339  338  335 ] final  120.46 input   60.00 | X-H torsion
[ 3663  154  153  150 ] final -102.47 input   60.00 | X-H torsion
[ 4280 1130 1129 1126 ] final  -74.37 input   60.00 | X-H torsion

> <Gold.Protein.ActiveResidues>
 VAL20   THR21   CYS22   GLY23   THR24   THR25   THR26   LEU27   ASN28   PRO39  
 ARG40   HIS41   VAL42   CYS44   THR45   SER46   ASP48   MET49   LEU50   PRO52  
 TYR54   TYR118  ASN119  ILE136  GLY138  SER139  PHE140  LEU141  ASN142  GLY143 
 SER144  CYS145  GLY146  SER147  TYR161  HIS163  HIS164  MET165  GLU166  LEU167 
 PRO168  THR169  GLY170  VAL171  HIS172  ALA173  PHE181  PHE185  VAL186  ASP187 
 ARG188  GLN189  THR190  ALA191  GLN192  ALA193 

> <Gold.Protein.RotatedAtoms>
  -15.1639   16.9594   76.0998 H   0  0  0  0  0  0  0  0  0  0  0  0  # atno 3372 bound_to 414 
   -3.1060   22.2942   74.8064 H   0  0  0  0  0  0  0  0  0  0  0  0  # atno 3515 bound_to 339 
   -1.8326   17.3264   72.8304 H   0  0  0  0  0  0  0  0  0  0  0  0  # atno 3523 bound_to 346 
   -8.8154   25.8648   63.9547 H   0  0  0  0  0  0  0  0  0  0  0  0  # atno 3576 bound_to 185 
   -6.9810   28.4727   65.4561 H   0  0  0  0  0  0  0  0  0  0  0  0  # atno 3663 bound_to 154 
   -1.9445   23.5940   72.1011 H   0  0  0  0  0  0  0  0  0  0  0  0  # atno 3793 bound_to 171 
   -6.6130   24.0106   72.1887 H   0  0  0  0  0  0  0  0  0  0  0  0  # atno 3800 bound_to 178 
  -14.9763    8.5815   76.9028 H   0  0  0  0  0  0  0  0  0  0  0  0  # atno 3973 bound_to 1471
  -20.6787   12.5023   63.1271 H   0  0  0  0  0  0  0  0  0  0  0  0  # atno 4183 bound_to 1244
  -13.8100   15.3251   60.8139 H   0  0  0  0  0  0  0  0  0  0  0  0  # atno 4268 bound_to 1114
  -16.4315   19.9284   58.1085 H   0  0  0  0  0  0  0  0  0  0  0  0  # atno 4280 bound_to 1130
  -11.2054   15.1219   56.2357 H   0  0  0  0  0  0  0  0  0  0  0  0  # atno 4409 bound_to 924 
  -15.4567    8.7391   78.4495 LP  0  0  0  0  0  0  0  0  0  0  0  0  # atno 4696 bound_to 1471
  -15.6039    7.3020   77.6882 LP  0  0  0  0  0  0  0  0  0  0  0  0  # atno 4697 bound_to 1471
  -13.8336   17.8854   75.9545 LP  0  0  0  0  0  0  0  0  0  0  0  0  # atno 4731 bound_to 414 
  -15.0952   18.0986   74.9398 LP  0  0  0  0  0  0  0  0  0  0  0  0  # atno 4732 bound_to 414 
  -13.7108   16.4411   61.9940 LP  0  0  0  0  0  0  0  0  0  0  0  0  # atno 4733 bound_to 1114
  -12.3901   15.5810   61.5664 LP  0  0  0  0  0  0  0  0  0  0  0  0  # atno 4734 bound_to 1114
  -12.1086   15.4152   57.5571 LP  0  0  0  0  0  0  0  0  0  0  0  0  # atno 4763 bound_to 924 
  -10.5513   14.9500   57.7158 LP  0  0  0  0  0  0  0  0  0  0  0  0  # atno 4764 bound_to 924 
  -20.8290   13.1152   64.6270 LP  0  0  0  0  0  0  0  0  0  0  0  0  # atno 4771 bound_to 1244
  -19.8573   13.8459   63.5368 LP  0  0  0  0  0  0  0  0  0  0  0  0  # atno 4772 bound_to 1244
   -6.3290   22.6449   71.3506 LP  0  0  0  0  0  0  0  0  0  0  0  0  # atno 4775 bound_to 178 
   -7.6754   22.7803   72.2646 LP  0  0  0  0  0  0  0  0  0  0  0  0  # atno 4776 bound_to 178 
   -3.5029   24.0050   71.8770 LP  0  0  0  0  0  0  0  0  0  0  0  0  # atno 4779 bound_to 171 
   -2.5193   24.9690   72.7544 LP  0  0  0  0  0  0  0  0  0  0  0  0  # atno 4780 bound_to 171 
   -7.6008   25.1983   63.1011 LP  0  0  0  0  0  0  0  0  0  0  0  0  # atno 4783 bound_to 185 
   -7.5291   26.7701   63.5382 LP  0  0  0  0  0  0  0  0  0  0  0  0  # atno 4784 bound_to 185 
   -2.9195   18.4913   73.1616 LP  0  0  0  0  0  0  0  0  0  0  0  0  # atno 4785 bound_to 346 
   -3.4181   17.0412   72.6001 LP  0  0  0  0  0  0  0  0  0  0  0  0  # atno 4786 bound_to 346 
   -3.6283   20.8213   74.3526 LP  0  0  0  0  0  0  0  0  0  0  0  0  # atno 4787 bound_to 339 
   -2.7344   20.9918   75.7085 LP  0  0  0  0  0  0  0  0  0  0  0  0  # atno 4788 bound_to 339 
   -7.3970   29.9684   64.9681 LP  0  0  0  0  0  0  0  0  0  0  0  0  # atno 4797 bound_to 154 
   -8.5528   28.8619   65.2943 LP  0  0  0  0  0  0  0  0  0  0  0  0  # atno 4798 bound_to 154 

$$$$
