#       Name:                unknown
#       Creating user name   williammccorkindale
#       Creation time:       Tue Jun  7 14:55:37 2022


#       File generated by GOLD software.
#

@<TRIPOS>MOLECULE
unknown|prepared_Mpro-x0161|mol2|1|dock2
    26    26     1
SMALL
NO_CHARGES


@<TRIPOS>ATOM
      1 C1         -12.7278  15.5980  73.8872 C.3            1 RES1               0.0000
      2 O2         -12.2239  15.8411  72.5998 O.3            1 RES1               0.0000
      3 C3         -12.7123  15.1111  71.5331 C.2            1 RES1               0.0000
      4 O4         -13.7174  14.3894  71.7370 O.2            1 RES1               0.0000
      5 C5         -12.0708  15.1837  70.2110 C.ar           1 RES1               0.0000
      6 C6         -12.1883  14.1651  69.2960 C.ar           1 RES1               0.0000
      7 C7         -11.5792  14.2319  68.0380 C.ar           1 RES1               0.0000
      8 C8         -10.8391  15.3437  67.6961 C.ar           1 RES1               0.0000
      9 C9         -10.7424  16.3460  68.6378 C.ar           1 RES1               0.0000
     10 C10        -11.3336  16.2916  69.8708 C.ar           1 RES1               0.0000
     11 S11        -10.0656  15.4616  66.1366 S.o2           1 RES1               0.0000
     12 O12        -10.8443  14.6024  65.1839 O.2            1 RES1               0.0000
     13 O13        -10.0616  16.9074  65.6849 O.2            1 RES1               0.0000
     14 N14         -8.4302  14.9417  66.1718 N.3            1 RES1               0.0000
     15 H15        -12.1181  16.0708  74.6836 H              1 RES1               0.0000
     16 H16        -12.8482  14.5305  74.1274 H              1 RES1               0.0000
     17 H17        -13.7608  16.0370  73.9127 H              1 RES1               0.0000
     18 H18        -12.7677  13.2900  69.5584 H              1 RES1               0.0000
     19 H19        -11.6616  13.4452  67.3130 H              1 RES1               0.0000
     20 H20        -10.1647  17.2260  68.3846 H              1 RES1               0.0000
     21 H21        -11.2513  17.0904  70.6098 H              1 RES1               0.0000
     22 H22         -8.2277  14.3512  65.3389 H              1 RES1               0.0000
     23 H23         -7.7481  15.7151  66.2138 H              1 RES1               0.0000
     24 ****       -14.1344  14.3580  72.6454 LP             1 RES1               0.0000
     25 ****       -14.1019  13.8453  70.9913 LP             1 RES1               0.0000
     26 ****        -8.3248  14.4167  67.0163 LP             1 RES1               0.0000
@<TRIPOS>BOND
    1    1    2 1     
    2    2    3 1     
    3    3    4 2     
    4    3    5 1     
    5    5    6 ar    
    6    6    7 ar    
    7    7    8 ar    
    8    8    9 ar    
    9    9   10 ar    
   10    8   11 1     
   11   11   12 2     
   12   11   13 2     
   13   11   14 1     
   14    5   10 ar    
   15    1   15 1     
   16    1   16 1     
   17    1   17 1     
   18    6   18 1     
   19    7   19 1     
   20    9   20 1     
   21   10   21 1     
   22   14   22 1     
   23   14   23 1     
   24    4   24 1     
   25    4   25 1     
   26   14   26 1     
@<TRIPOS>SUBSTRUCTURE
      1 RES1           1
@<TRIPOS>SET
LONE_PAIRS      STATIC     ATOMS    <user>   **** ""
5 24 25 12 13 26
DONOR_HYDROGENS      STATIC     ATOMS    <user>   **** ""
2 22 23
ATOM$BLUE        STATIC     ATOMS    COLORGROUP SYSTEM
5 24 25 12 13 26
ATOM$RED        STATIC     ATOMS    COLORGROUP SYSTEM
2 22 23
@<TRIPOS>COMMENT
> <Gold.Version>
2022.1.0

> <Gold.Id.Protein>
6LU7|6LU7_protein|mol2

> <Gold.Protein.RotatedTorsions>
[ 3973 1471 1470 1467 ] final -136.86 input   60.00 | X-H torsion
[ 3372  414  413  411 ] final   74.93 input   60.00 | X-H torsion
[ 4268 1114 1113 1110 ] final -106.56 input   59.99 | X-H torsion
[ 4409  924  923  921 ] final -144.09 input   59.99 | X-H torsion
[ 4183 1244 1243 1241 ] final   67.42 input   59.99 | X-H torsion
[ 3800  178  177  174 ] final    4.13 input   60.00 | X-H torsion
[ 3793  171  170  167 ] final   99.71 input   60.00 | X-H torsion
[ 3576  185  184  181 ] final -143.52 input   60.00 | X-H torsion
[ 3523  346  345  342 ] final    0.92 input   60.01 | X-H torsion
[ 3515  339  338  335 ] final  -49.07 input   60.00 | X-H torsion
[ 3663  154  153  150 ] final   44.55 input   60.00 | X-H torsion
[ 4280 1130 1129 1126 ] final  177.80 input   60.00 | X-H torsion

> <Gold.Protein.ActiveResidues>
 VAL20   THR21   CYS22   GLY23   THR24   THR25   THR26   LEU27   ASN28   PRO39  
 ARG40   HIS41   VAL42   CYS44   THR45   SER46   ASP48   MET49   LEU50   PRO52  
 TYR54   TYR118  ASN119  ILE136  GLY138  SER139  PHE140  LEU141  ASN142  GLY143 
 SER144  CYS145  GLY146  SER147  TYR161  HIS163  HIS164  MET165  GLU166  LEU167 
 PRO168  THR169  GLY170  VAL171  HIS172  ALA173  PHE181  PHE185  VAL186  ASP187 
 ARG188  GLN189  THR190  ALA191  GLN192  ALA193 

> <Gold.Protein.RotatedAtoms>
  -13.8648   17.7534   76.0776 H   0  0  0  0  0  0  0  0  0  0  0  0  # atno 3372 bound_to 414 
   -3.3011   20.4464   74.9625 H   0  0  0  0  0  0  0  0  0  0  0  0  # atno 3515 bound_to 339 
   -3.5873   17.9696   72.9236 H   0  0  0  0  0  0  0  0  0  0  0  0  # atno 3523 bound_to 346 
   -7.2673   25.5908   63.0443 H   0  0  0  0  0  0  0  0  0  0  0  0  # atno 3576 bound_to 185 
   -8.5573   29.2808   65.1631 H   0  0  0  0  0  0  0  0  0  0  0  0  # atno 3663 bound_to 154 
   -2.7981   23.4157   71.7347 H   0  0  0  0  0  0  0  0  0  0  0  0  # atno 3793 bound_to 171 
   -6.0583   23.3606   71.5240 H   0  0  0  0  0  0  0  0  0  0  0  0  # atno 3800 bound_to 178 
  -15.3904    8.8533   78.3555 H   0  0  0  0  0  0  0  0  0  0  0  0  # atno 3973 bound_to 1471
  -20.8846   12.3886   63.4332 H   0  0  0  0  0  0  0  0  0  0  0  0  # atno 4183 bound_to 1244
  -12.4642   15.3866   61.3384 H   0  0  0  0  0  0  0  0  0  0  0  0  # atno 4268 bound_to 1114
  -15.8608   18.6020   58.5606 H   0  0  0  0  0  0  0  0  0  0  0  0  # atno 4280 bound_to 1130
  -11.3882   15.2108   58.0968 H   0  0  0  0  0  0  0  0  0  0  0  0  # atno 4409 bound_to 924 
  -15.6477    7.3307   77.8419 LP  0  0  0  0  0  0  0  0  0  0  0  0  # atno 4696 bound_to 1471
  -14.9959    8.4367   76.8327 LP  0  0  0  0  0  0  0  0  0  0  0  0  # atno 4697 bound_to 1471
  -14.9385   18.1944   74.9371 LP  0  0  0  0  0  0  0  0  0  0  0  0  # atno 4731 bound_to 414 
  -15.2986   16.9900   75.9795 LP  0  0  0  0  0  0  0  0  0  0  0  0  # atno 4732 bound_to 414 
  -14.0337   15.5060   60.9257 LP  0  0  0  0  0  0  0  0  0  0  0  0  # atno 4733 bound_to 1114
  -13.4225   16.4543   62.1063 LP  0  0  0  0  0  0  0  0  0  0  0  0  # atno 4734 bound_to 1114
  -10.4609   14.9060   56.7949 LP  0  0  0  0  0  0  0  0  0  0  0  0  # atno 4763 bound_to 924 
  -12.0149   15.3696   56.6035 LP  0  0  0  0  0  0  0  0  0  0  0  0  # atno 4764 bound_to 924 
  -20.6059   13.4328   64.6498 LP  0  0  0  0  0  0  0  0  0  0  0  0  # atno 4771 bound_to 1244
  -19.8730   13.6428   63.2057 LP  0  0  0  0  0  0  0  0  0  0  0  0  # atno 4772 bound_to 1244
   -7.2720   22.3076   71.7812 LP  0  0  0  0  0  0  0  0  0  0  0  0  # atno 4775 bound_to 178 
   -7.2911   23.7721   72.5033 LP  0  0  0  0  0  0  0  0  0  0  0  0  # atno 4776 bound_to 178 
   -3.3612   24.7931   72.3931 LP  0  0  0  0  0  0  0  0  0  0  0  0  # atno 4779 bound_to 171 
   -1.8012   24.3604   72.6074 LP  0  0  0  0  0  0  0  0  0  0  0  0  # atno 4780 bound_to 171 
   -7.9722   26.8485   63.7988 LP  0  0  0  0  0  0  0  0  0  0  0  0  # atno 4783 bound_to 185 
   -8.7169   25.3958   63.7574 LP  0  0  0  0  0  0  0  0  0  0  0  0  # atno 4784 bound_to 185 
   -2.5897   16.7376   72.5561 LP  0  0  0  0  0  0  0  0  0  0  0  0  # atno 4785 bound_to 346 
   -1.9807   18.1472   73.1118 LP  0  0  0  0  0  0  0  0  0  0  0  0  # atno 4786 bound_to 346 
   -2.6517   21.7746   75.6424 LP  0  0  0  0  0  0  0  0  0  0  0  0  # atno 4787 bound_to 339 
   -3.5144   21.8994   74.2615 LP  0  0  0  0  0  0  0  0  0  0  0  0  # atno 4788 bound_to 339 
   -7.3521   28.2464   65.5174 LP  0  0  0  0  0  0  0  0  0  0  0  0  # atno 4797 bound_to 154 
   -7.0102   29.7701   65.0399 LP  0  0  0  0  0  0  0  0  0  0  0  0  # atno 4798 bound_to 154 

> <Gold.Score>
     Score     S(PLP)   S(hbond)     S(cho)   S(metal)  DE(clash)   DE(tors)     intcor
     35.06     -30.25       1.83       0.00       0.00       0.00       1.45       2.23

> <Gold.PLP.Fitness>
35.0555

> <Gold.PLP.PLP>
-30.2520

> <Gold.PLP.part.hbond>
-1.7633

> <Gold.PLP.part.metal>
0.0000

> <Gold.PLP.part.buried>
-6.1544

> <Gold.PLP.part.nonpolar>
-24.0016

> <Gold.PLP.part.repulsive>
0.2960

> <Gold.PLP.ligand.clash>
0.0000

> <Gold.PLP.ligand.torsion>
1.4540

> <Gold.PLP.Chemscore.Hbond>
1.8288

> <Gold.PLP.Chemscore.CHOScore>
0.0000

> <Gold.PLP.Chemscore.Metal>
0.0000

> <Gold.Chemscore.Hbonds>
donor molecule, donor type, donor heavy atom, donor atom, acceptor molecule, acceptor atom, score
      L1  H    14    22       P1  1103  1.00
      P1  H  1105  4261       L1    13  0.83

> <Gold.PLP.Chemscore.Internal.Correction>
2.2252

