#       Name:                unknown
#       Creating user name   williammccorkindale
#       Creation time:       Tue Jun  7 14:55:39 2022


#       File generated by GOLD software.
#

@<TRIPOS>MOLECULE
unknown|prepared_Mpro-x0991|mol2|1|dock4
    14    13     1
SMALL
NO_CHARGES


@<TRIPOS>ATOM
      1 C1         -12.1949  16.1997  73.0665 C.3            1 RES1               0.0000
      2 C2         -12.5997  14.7560  72.8945 C.3            1 RES1               0.0000
      3 C3         -13.6330  14.6654  71.8495 C.2            1 RES1               0.0000
      4 N4         -13.3636  15.1051  70.6810 N.2            1 RES1               0.0000
      5 N5         -14.9317  14.1001  72.0986 N.pl3          1 RES1               0.0000
      6 H6         -12.8834  16.6764  73.7947 H              1 RES1               0.0000
      7 H7         -12.3002  16.7636  72.0999 H              1 RES1               0.0000
      8 H8         -11.1267  16.3171  73.3533 H              1 RES1               0.0000
      9 H9         -11.7411  14.1039  72.6322 H              1 RES1               0.0000
     10 H10        -13.0843  14.4051  73.8499 H              1 RES1               0.0000
     11 H11        -14.0227  15.0823  69.8933 H              1 RES1               0.0000
     12 H12        -15.1047  13.7566  73.0604 H              1 RES1               0.0000
     13 H13        -15.6169  14.0668  71.3130 H              1 RES1               0.0000
     14 ****       -12.4564  15.4951  70.5234 LP             1 RES1               0.0000
@<TRIPOS>BOND
    1    1    2 1     
    2    2    3 1     
    3    3    4 2     
    4    3    5 1     
    5    1    6 1     
    6    1    7 1     
    7    1    8 1     
    8    2    9 1     
    9    2   10 1     
   10    4   11 1     
   11    5   12 1     
   12    5   13 1     
   13    4   14 1     
@<TRIPOS>SUBSTRUCTURE
      1 RES1           1
@<TRIPOS>SET
LONE_PAIRS      STATIC     ATOMS    <user>   **** ""
1 14
DONOR_HYDROGENS      STATIC     ATOMS    <user>   **** ""
3 11 12 13
ATOM$BLUE        STATIC     ATOMS    COLORGROUP SYSTEM
1 14
ATOM$RED        STATIC     ATOMS    COLORGROUP SYSTEM
3 11 12 13
@<TRIPOS>COMMENT
> <Gold.Version>
2022.1.0

> <Gold.Id.Protein>
6LU7|6LU7_protein|mol2

> <Gold.Protein.RotatedTorsions>
[ 3973 1471 1470 1467 ] final  120.55 input   60.00 | X-H torsion
[ 3372  414  413  411 ] final  111.65 input   60.00 | X-H torsion
[ 4268 1114 1113 1110 ] final  151.32 input   59.99 | X-H torsion
[ 4409  924  923  921 ] final -131.28 input   59.99 | X-H torsion
[ 4183 1244 1243 1241 ] final  -24.82 input   59.99 | X-H torsion
[ 3800  178  177  174 ] final -157.12 input   60.00 | X-H torsion
[ 3793  171  170  167 ] final  100.78 input   60.00 | X-H torsion
[ 3576  185  184  181 ] final  -79.21 input   60.00 | X-H torsion
[ 3523  346  345  342 ] final  -74.52 input   60.01 | X-H torsion
[ 3515  339  338  335 ] final  -30.96 input   60.00 | X-H torsion
[ 3663  154  153  150 ] final -149.62 input   60.00 | X-H torsion
[ 4280 1130 1129 1126 ] final  174.14 input   60.00 | X-H torsion

> <Gold.Protein.ActiveResidues>
 VAL20   THR21   CYS22   GLY23   THR24   THR25   THR26   LEU27   ASN28   PRO39  
 ARG40   HIS41   VAL42   CYS44   THR45   SER46   ASP48   MET49   LEU50   PRO52  
 TYR54   TYR118  ASN119  ILE136  GLY138  SER139  PHE140  LEU141  ASN142  GLY143 
 SER144  CYS145  GLY146  SER147  TYR161  HIS163  HIS164  MET165  GLU166  LEU167 
 PRO168  THR169  GLY170  VAL171  HIS172  ALA173  PHE181  PHE185  VAL186  ASP187 
 ARG188  GLN189  THR190  ALA191  GLN192  ALA193 

> <Gold.Protein.RotatedAtoms>
  -14.1538   17.3195   76.3534 H   0  0  0  0  0  0  0  0  0  0  0  0  # atno 3372 bound_to 414 
   -3.4477   20.5145   74.7162 H   0  0  0  0  0  0  0  0  0  0  0  0  # atno 3515 bound_to 339 
   -3.2770   16.9245   72.5717 H   0  0  0  0  0  0  0  0  0  0  0  0  # atno 3523 bound_to 346 
   -8.0575   25.0403   63.3002 H   0  0  0  0  0  0  0  0  0  0  0  0  # atno 3576 bound_to 185 
   -6.7067   29.1385   65.2503 H   0  0  0  0  0  0  0  0  0  0  0  0  # atno 3663 bound_to 154 
   -2.7814   23.4112   71.7371 H   0  0  0  0  0  0  0  0  0  0  0  0  # atno 3793 bound_to 171 
   -7.6402   22.6764   72.1891 H   0  0  0  0  0  0  0  0  0  0  0  0  # atno 3800 bound_to 178 
  -15.6978    7.4486   78.0959 H   0  0  0  0  0  0  0  0  0  0  0  0  # atno 3973 bound_to 1471
  -20.8598   13.0634   64.6018 H   0  0  0  0  0  0  0  0  0  0  0  0  # atno 4183 bound_to 1244
  -13.8234   15.3340   60.8183 H   0  0  0  0  0  0  0  0  0  0  0  0  # atno 4268 bound_to 1114
  -15.8329   18.5934   58.6129 H   0  0  0  0  0  0  0  0  0  0  0  0  # atno 4280 bound_to 1130
  -11.5832   15.2686   58.0494 H   0  0  0  0  0  0  0  0  0  0  0  0  # atno 4409 bound_to 924 
  -15.0559    8.1624   76.7820 LP  0  0  0  0  0  0  0  0  0  0  0  0  # atno 4696 bound_to 1471
  -15.2781    9.0197   78.1540 LP  0  0  0  0  0  0  0  0  0  0  0  0  # atno 4697 bound_to 1471
  -14.3936   18.3488   75.1159 LP  0  0  0  0  0  0  0  0  0  0  0  0  # atno 4731 bound_to 414 
  -15.5525   17.2727   75.5229 LP  0  0  0  0  0  0  0  0  0  0  0  0  # atno 4732 bound_to 414 
  -13.6960   16.4437   62.0017 LP  0  0  0  0  0  0  0  0  0  0  0  0  # atno 4733 bound_to 1114
  -12.3913   15.5695   61.5542 LP  0  0  0  0  0  0  0  0  0  0  0  0  # atno 4734 bound_to 1114
  -10.4014   14.8918   56.9961 LP  0  0  0  0  0  0  0  0  0  0  0  0  # atno 4763 bound_to 924 
  -11.8780   15.3257   56.4501 LP  0  0  0  0  0  0  0  0  0  0  0  0  # atno 4764 bound_to 924 
  -19.8647   13.8690   63.5973 LP  0  0  0  0  0  0  0  0  0  0  0  0  # atno 4771 bound_to 1244
  -20.6391   12.5271   63.0814 LP  0  0  0  0  0  0  0  0  0  0  0  0  # atno 4772 bound_to 1244
   -6.7224   24.0181   72.2642 LP  0  0  0  0  0  0  0  0  0  0  0  0  # atno 4775 bound_to 178 
   -6.2476   22.7507   71.3505 LP  0  0  0  0  0  0  0  0  0  0  0  0  # atno 4776 bound_to 178 
   -3.3718   24.7828   72.3836 LP  0  0  0  0  0  0  0  0  0  0  0  0  # atno 4779 bound_to 171 
   -1.8074   24.3753   72.6144 LP  0  0  0  0  0  0  0  0  0  0  0  0  # atno 4780 bound_to 171 
   -7.2227   26.4368   63.2736 LP  0  0  0  0  0  0  0  0  0  0  0  0  # atno 4783 bound_to 185 
   -8.6706   26.3620   64.0249 LP  0  0  0  0  0  0  0  0  0  0  0  0  # atno 4784 bound_to 185 
   -1.7871   17.4951   72.8922 LP  0  0  0  0  0  0  0  0  0  0  0  0  # atno 4785 bound_to 346 
   -3.0959   18.4422   73.1300 LP  0  0  0  0  0  0  0  0  0  0  0  0  # atno 4786 bound_to 346 
   -2.6382   21.4927   75.7339 LP  0  0  0  0  0  0  0  0  0  0  0  0  # atno 4787 bound_to 339 
   -3.3803   22.1128   74.4181 LP  0  0  0  0  0  0  0  0  0  0  0  0  # atno 4788 bound_to 339 
   -8.1427   29.8572   64.9866 LP  0  0  0  0  0  0  0  0  0  0  0  0  # atno 4797 bound_to 154 
   -8.0834   28.3026   65.4830 LP  0  0  0  0  0  0  0  0  0  0  0  0  # atno 4798 bound_to 154 

> <Gold.Score>
     Score     S(PLP)   S(hbond)     S(cho)   S(metal)  DE(clash)   DE(tors)     intcor
     21.37     -18.38       1.00       0.00       0.00       0.00       0.00       0.00

> <Gold.PLP.Fitness>
21.3733

> <Gold.PLP.PLP>
-18.3823

> <Gold.PLP.part.hbond>
-0.9538

> <Gold.PLP.part.metal>
0.0000

> <Gold.PLP.part.buried>
-3.1186

> <Gold.PLP.part.nonpolar>
-14.5944

> <Gold.PLP.part.repulsive>
0.1277

> <Gold.PLP.ligand.clash>
0.0000

> <Gold.PLP.ligand.torsion>
0.0045

> <Gold.PLP.Chemscore.Hbond>
1.0000

> <Gold.PLP.Chemscore.CHOScore>
0.0000

> <Gold.PLP.Chemscore.Metal>
0.0000

> <Gold.Chemscore.Hbonds>
donor molecule, donor type, donor heavy atom, donor atom, acceptor molecule, acceptor atom, score
      L1  H     4    11       P1  1266  1.00

> <Gold.PLP.Chemscore.Internal.Correction>
0.0000

