#       Name:                unknown
#       Creating user name   williammccorkindale
#       Creation time:       Tue Jun  7 14:55:40 2022


#       File generated by GOLD software.
#

@<TRIPOS>MOLECULE
unknown|prepared_Mpro-x0995|mol2|1|dock4
    14    14     1
SMALL
NO_CHARGES


@<TRIPOS>ATOM
      1 N1         -11.6752  13.7310  70.8844 N.pl3          1 RES1               0.0000
      2 C2         -12.4806  14.5770  71.6979 C.ar           1 RES1               0.0000
      3 C3         -12.0368  15.0992  72.8987 C.ar           1 RES1               0.0000
      4 N4         -12.8540  15.9059  73.6382 N.ar           1 RES1               0.0000
      5 C5         -14.0910  16.1999  73.2102 C.ar           1 RES1               0.0000
      6 N6         -14.5486  15.7159  72.0629 N.ar           1 RES1               0.0000
      7 C7         -13.7602  14.9052  71.2955 C.ar           1 RES1               0.0000
      8 H8         -10.6878  13.4607  71.1663 H              1 RES1               0.0000
      9 H9         -12.0154  13.3417  69.9823 H              1 RES1               0.0000
     10 H10        -11.0488  14.8487  73.2145 H              1 RES1               0.0000
     11 H11        -14.7162  16.8393  73.8132 H              1 RES1               0.0000
     12 H12        -14.1064  14.5020  70.3655 H              1 RES1               0.0000
     13 ****       -12.5275  16.2805  74.5059 LP             1 RES1               0.0000
     14 ****       -15.4732  15.9451  71.7586 LP             1 RES1               0.0000
@<TRIPOS>BOND
    1    1    2 1     
    2    2    3 ar    
    3    3    4 ar    
    4    4    5 ar    
    5    5    6 ar    
    6    6    7 ar    
    7    2    7 ar    
    8    1    8 1     
    9    1    9 1     
   10    3   10 1     
   11    5   11 1     
   12    7   12 1     
   13    4   13 1     
   14    6   14 1     
@<TRIPOS>SUBSTRUCTURE
      1 RES1           1
@<TRIPOS>SET
LONE_PAIRS      STATIC     ATOMS    <user>   **** ""
2 13 14
DONOR_HYDROGENS      STATIC     ATOMS    <user>   **** ""
2 8 9
ATOM$BLUE        STATIC     ATOMS    COLORGROUP SYSTEM
2 13 14
ATOM$RED        STATIC     ATOMS    COLORGROUP SYSTEM
2 8 9
@<TRIPOS>COMMENT
> <Gold.Version>
2022.1.0

> <Gold.Id.Protein>
6LU7|6LU7_protein|mol2

> <Gold.Protein.RotatedTorsions>
[ 3973 1471 1470 1467 ] final  -68.06 input   60.00 | X-H torsion
[ 3372  414  413  411 ] final   87.66 input   60.00 | X-H torsion
[ 4268 1114 1113 1110 ] final  178.16 input   59.99 | X-H torsion
[ 4409  924  923  921 ] final  -63.68 input   59.99 | X-H torsion
[ 4183 1244 1243 1241 ] final -116.97 input   59.99 | X-H torsion
[ 3800  178  177  174 ] final -119.59 input   60.00 | X-H torsion
[ 3793  171  170  167 ] final -178.93 input   60.00 | X-H torsion
[ 3576  185  184  181 ] final   51.56 input   60.00 | X-H torsion
[ 3523  346  345  342 ] final  155.49 input   60.01 | X-H torsion
[ 3515  339  338  335 ] final  -21.85 input   60.00 | X-H torsion
[ 3663  154  153  150 ] final -131.08 input   60.00 | X-H torsion
[ 4280 1130 1129 1126 ] final  -18.06 input   60.00 | X-H torsion

> <Gold.Protein.ActiveResidues>
 VAL20   THR21   CYS22   GLY23   THR24   THR25   THR26   LEU27   ASN28   PRO39  
 ARG40   HIS41   VAL42   CYS44   THR45   SER46   ASP48   MET49   LEU50   PRO52  
 TYR54   TYR118  ASN119  ILE136  GLY138  SER139  PHE140  LEU141  ASN142  GLY143 
 SER144  CYS145  GLY146  SER147  TYR161  HIS163  HIS164  MET165  GLU166  LEU167 
 PRO168  THR169  GLY170  VAL171  HIS172  ALA173  PHE181  PHE185  VAL186  ASP187 
 ARG188  GLN189  THR190  ALA191  GLN192  ALA193 

> <Gold.Protein.RotatedAtoms>
  -13.9308   17.5987   76.1992 H   0  0  0  0  0  0  0  0  0  0  0  0  # atno 3372 bound_to 414 
   -3.5114   20.5816   74.5997 H   0  0  0  0  0  0  0  0  0  0  0  0  # atno 3515 bound_to 339 
   -1.7895   17.6483   72.9497 H   0  0  0  0  0  0  0  0  0  0  0  0  # atno 3523 bound_to 346 
   -8.5632   26.5012   64.0123 H   0  0  0  0  0  0  0  0  0  0  0  0  # atno 3576 bound_to 185 
   -6.7444   28.8531   65.3403 H   0  0  0  0  0  0  0  0  0  0  0  0  # atno 3663 bound_to 154 
   -1.7911   23.8272   72.2877 H   0  0  0  0  0  0  0  0  0  0  0  0  # atno 3793 bound_to 171 
   -7.3155   22.3313   71.8172 H   0  0  0  0  0  0  0  0  0  0  0  0  # atno 3800 bound_to 178 
  -15.0120    9.0325   77.3841 H   0  0  0  0  0  0  0  0  0  0  0  0  # atno 3973 bound_to 1471
  -19.9980   13.9260   64.0257 H   0  0  0  0  0  0  0  0  0  0  0  0  # atno 4183 bound_to 1244
  -13.4297   15.1560   60.7711 H   0  0  0  0  0  0  0  0  0  0  0  0  # atno 4268 bound_to 1114
  -16.2079   20.4055   58.8176 H   0  0  0  0  0  0  0  0  0  0  0  0  # atno 4280 bound_to 1130
  -12.1830   15.4336   57.2140 H   0  0  0  0  0  0  0  0  0  0  0  0  # atno 4409 bound_to 924 
  -15.6684    8.1181   78.5592 LP  0  0  0  0  0  0  0  0  0  0  0  0  # atno 4696 bound_to 1471
  -15.3562    7.4688   77.0937 LP  0  0  0  0  0  0  0  0  0  0  0  0  # atno 4697 bound_to 1471
  -14.7494   18.2779   74.9677 LP  0  0  0  0  0  0  0  0  0  0  0  0  # atno 4731 bound_to 414 
  -15.4213   17.0624   75.8265 LP  0  0  0  0  0  0  0  0  0  0  0  0  # atno 4732 bound_to 414 
  -14.0283   16.3096   61.7504 LP  0  0  0  0  0  0  0  0  0  0  0  0  # atno 4733 bound_to 1114
  -12.4555   15.8829   61.8530 LP  0  0  0  0  0  0  0  0  0  0  0  0  # atno 4734 bound_to 1114
  -10.7945   15.0275   57.9591 LP  0  0  0  0  0  0  0  0  0  0  0  0  # atno 4763 bound_to 924 
  -10.8808   15.0237   56.3284 LP  0  0  0  0  0  0  0  0  0  0  0  0  # atno 4764 bound_to 924 
  -20.3491   12.8173   62.8876 LP  0  0  0  0  0  0  0  0  0  0  0  0  # atno 4771 bound_to 1244
  -21.0227   12.7101   64.3713 LP  0  0  0  0  0  0  0  0  0  0  0  0  # atno 4772 bound_to 1244
   -7.2446   23.8102   72.4925 LP  0  0  0  0  0  0  0  0  0  0  0  0  # atno 4775 bound_to 178 
   -6.0524   23.3061   71.4968 LP  0  0  0  0  0  0  0  0  0  0  0  0  # atno 4776 bound_to 178 
   -3.3303   23.7355   71.7677 LP  0  0  0  0  0  0  0  0  0  0  0  0  # atno 4779 bound_to 171 
   -2.8463   25.0035   72.6758 LP  0  0  0  0  0  0  0  0  0  0  0  0  # atno 4780 bound_to 171 
   -8.2139   25.0424   63.3817 LP  0  0  0  0  0  0  0  0  0  0  0  0  # atno 4783 bound_to 185 
   -7.1701   26.2850   63.1996 LP  0  0  0  0  0  0  0  0  0  0  0  0  # atno 4784 bound_to 185 
   -3.2397   18.3722   73.0935 LP  0  0  0  0  0  0  0  0  0  0  0  0  # atno 4785 bound_to 346 
   -3.1412   16.8362   72.5481 LP  0  0  0  0  0  0  0  0  0  0  0  0  # atno 4786 bound_to 346 
   -2.6509   21.3444   75.7511 LP  0  0  0  0  0  0  0  0  0  0  0  0  # atno 4787 bound_to 339 
   -3.3034   22.1934   74.5182 LP  0  0  0  0  0  0  0  0  0  0  0  0  # atno 4788 bound_to 339 
   -7.8627   29.9712   64.9566 LP  0  0  0  0  0  0  0  0  0  0  0  0  # atno 4797 bound_to 154 
   -8.3253   28.4760   65.4223 LP  0  0  0  0  0  0  0  0  0  0  0  0  # atno 4798 bound_to 154 

> <Gold.Score>
     Score     S(PLP)   S(hbond)     S(cho)   S(metal)  DE(clash)   DE(tors)     intcor
     29.41     -19.06       1.00       2.45       0.00       0.00       0.00       0.00

> <Gold.PLP.Fitness>
29.4087

> <Gold.PLP.PLP>
-19.0641

> <Gold.PLP.part.hbond>
-1.8186

> <Gold.PLP.part.metal>
0.0000

> <Gold.PLP.part.buried>
-2.1104

> <Gold.PLP.part.nonpolar>
-15.9445

> <Gold.PLP.part.repulsive>
0.2641

> <Gold.PLP.ligand.clash>
0.0000

> <Gold.PLP.ligand.torsion>
0.0000

> <Gold.PLP.Chemscore.Hbond>
1.0000

> <Gold.PLP.Chemscore.CHOScore>
2.4482

> <Gold.PLP.Chemscore.Metal>
0.0000

> <Gold.Chemscore.Hbonds>
donor molecule, donor type, donor heavy atom, donor atom, acceptor molecule, acceptor atom, score
      L1  H     1     8       P1  1464  1.00
      L1  C     5    11       P1  1441  0.59
      L1  C     5    11       P1   414  0.86
      L1  C     7    12       P1  1266  1.00

> <Gold.PLP.Chemscore.Internal.Correction>
0.0000

