unknown|prepared_Mpro-x0540|sdf|1|dock3
  -GOLD-   5 72214353D 1   1.00000     0.00000

 39 40  0  0  0  0  0  0  0  0  1 V2000
  -10.1866   15.4716   69.6990 O   0  0  0  0  0  0  0  0  0  0  0  0
  -11.2919   15.7232   69.1895 C   0  0  0  0  0  0  0  0  0  0  0  0
  -11.4462   16.4398   67.9907 N   0  0  0  0  0  0  0  0  0  0  0  0
  -10.3042   16.9345   67.2847 C   0  0  0  0  0  0  0  0  0  0  0  0
  -10.5151   16.7981   65.8163 C   0  0  0  0  0  0  0  0  0  0  0  0
  -10.9223   15.4194   65.4242 C   0  0  0  0  0  0  0  0  0  0  0  0
  -11.9921   15.1626   64.5987 C   0  0  0  0  0  0  0  0  0  0  0  0
  -12.2997   13.8361   64.2853 C   0  0  0  0  0  0  0  0  0  0  0  0
  -11.5793   12.8229   64.7693 N   0  0  0  0  0  0  0  0  0  0  0  0
  -10.5253   13.0342   65.5803 C   0  0  0  0  0  0  0  0  0  0  0  0
  -10.1993   14.3514   65.9070 C   0  0  0  0  0  0  0  0  0  0  0  0
  -12.4421   15.2353   69.9001 N   0  0  0  0  0  0  0  0  0  0  0  0
  -12.3092   14.4960   71.1345 C   0  0  0  0  0  0  0  0  0  0  0  0
  -13.6415   13.9554   71.5637 C   0  0  0  0  0  0  0  0  0  0  0  0
  -14.5467   15.1234   71.8208 C   0  0  0  0  0  0  0  0  0  0  0  0
  -14.0315   15.8994   72.9948 C   0  0  0  0  0  0  0  0  0  0  0  0
  -12.6197   15.6506   73.3496 C   0  0  0  0  0  0  0  0  0  0  0  0
  -11.7037   15.3346   72.2148 C   0  0  0  0  0  0  0  0  0  0  0  0
  -12.4011   16.6063   67.6224 H   0  0  0  0  0  0  0  0  0  0  0  0
  -10.0533   17.9902   67.5715 H   0  0  0  0  0  0  0  0  0  0  0  0
   -9.4200   16.3031   67.5635 H   0  0  0  0  0  0  0  0  0  0  0  0
   -9.6312   17.0824   65.2440 H   0  0  0  0  0  0  0  0  0  0  0  0
  -11.3417   17.5105   65.5366 H   0  0  0  0  0  0  0  0  0  0  0  0
  -12.5574   15.9769   64.2200 H   0  0  0  0  0  0  0  0  0  0  0  0
  -13.1430   13.6279   63.6341 H   0  0  0  0  0  0  0  0  0  0  0  0
   -9.9719   12.1883   65.9481 H   0  0  0  0  0  0  0  0  0  0  0  0
   -9.3500   14.4781   66.5578 H   0  0  0  0  0  0  0  0  0  0  0  0
  -13.3911   15.4357   69.4938 H   0  0  0  0  0  0  0  0  0  0  0  0
  -11.6690   13.5901   70.9035 H   0  0  0  0  0  0  0  0  0  0  0  0
  -14.0479   13.2621   70.7997 H   0  0  0  0  0  0  0  0  0  0  0  0
  -13.5420   13.3973   72.5262 H   0  0  0  0  0  0  0  0  0  0  0  0
  -14.6584   15.7197   70.9065 H   0  0  0  0  0  0  0  0  0  0  0  0
  -15.5892   14.7267   72.0258 H   0  0  0  0  0  0  0  0  0  0  0  0
  -14.2230   16.9880   72.7650 H   0  0  0  0  0  0  0  0  0  0  0  0
  -14.6863   15.6739   73.8624 H   0  0  0  0  0  0  0  0  0  0  0  0
  -12.5305   14.8402   74.1303 H   0  0  0  0  0  0  0  0  0  0  0  0
  -12.2185   16.5635   73.8535 H   0  0  0  0  0  0  0  0  0  0  0  0
  -11.2905   16.2530   71.7468 H   0  0  0  0  0  0  0  0  0  0  0  0
  -10.8339   14.7799   72.6249 H   0  0  0  0  0  0  0  0  0  0  0  0
  1  2  2  0  0  0  0
  2  3  1  0  0  0  0
  3  4  1  0  0  0  0
  4  5  1  0  0  0  0
  5  6  1  0  0  0  0
  6  7  2  0  0  0  0
  7  8  1  0  0  0  0
  8  9  2  0  0  0  0
  9 10  1  0  0  0  0
 10 11  2  0  0  0  0
  2 12  1  0  0  0  0
 12 13  1  0  0  0  0
 13 14  1  0  0  0  0
 14 15  1  0  0  0  0
 15 16  1  0  0  0  0
 16 17  1  0  0  0  0
 17 18  1  0  0  0  0
  6 11  1  0  0  0  0
 18 13  1  0  0  0  0
  3 19  1  0  0  0  0
  4 20  1  0  0  0  0
  4 21  1  0  0  0  0
  5 22  1  0  0  0  0
  5 23  1  0  0  0  0
  7 24  1  0  0  0  0
  8 25  1  0  0  0  0
 10 26  1  0  0  0  0
 11 27  1  0  0  0  0
 12 28  1  0  0  0  0
 13 29  1  0  0  0  0
 14 30  1  0  0  0  0
 14 31  1  0  0  0  0
 15 32  1  0  0  0  0
 15 33  1  0  0  0  0
 16 34  1  0  0  0  0
 16 35  1  0  0  0  0
 17 36  1  0  0  0  0
 17 37  1  0  0  0  0
 18 38  1  0  0  0  0
 18 39  1  0  0  0  0
M  END
> <Gold.Version>
2022.1.0

> <Gold.Id.Protein>
6LU7|6LU7_protein|mol2

> <Gold.PLP.Fitness>
56.5793

> <Gold.PLP.PLP>
-52.0734

> <Gold.PLP.part.hbond>
-0.5542

> <Gold.PLP.part.metal>
0.0000

> <Gold.PLP.part.buried>
-7.4538

> <Gold.PLP.part.nonpolar>
-44.5425

> <Gold.PLP.part.repulsive>
0.2382

> <Gold.PLP.ligand.clash>
0.0000

> <Gold.PLP.ligand.torsion>
0.3187

> <Gold.PLP.Chemscore.Hbond>
0.6988

> <Gold.PLP.Chemscore.CHOScore>
1.0000

> <Gold.PLP.Chemscore.Metal>
0.0000

> <Gold.Chemscore.Hbonds>
donor molecule, donor type, donor heavy atom, donor atom, acceptor molecule, acceptor atom, score
      L1  H    12    28       P1  1266  0.70
      L1  C     8    25       P1  1262  1.00

> <Gold.PLP.Chemscore.Internal.Correction>
0.0471

> <Gold.Protein.RotatedTorsions>
[ 3973 1471 1470 1467 ] final  -72.98 input   60.00 | X-H torsion
[ 3372  414  413  411 ] final   32.66 input   60.00 | X-H torsion
[ 4268 1114 1113 1110 ] final  -74.87 input   59.99 | X-H torsion
[ 4409  924  923  921 ] final   -5.66 input   59.99 | X-H torsion
[ 4183 1244 1243 1241 ] final  -52.35 input   59.99 | X-H torsion
[ 3800  178  177  174 ] final  163.02 input   60.00 | X-H torsion
[ 3793  171  170  167 ] final   18.46 input   60.00 | X-H torsion
[ 3576  185  184  181 ] final   44.57 input   60.00 | X-H torsion
[ 3523  346  345  342 ] final -178.22 input   60.01 | X-H torsion
[ 3515  339  338  335 ] final   84.82 input   60.00 | X-H torsion
[ 3663  154  153  150 ] final  129.82 input   60.00 | X-H torsion
[ 4280 1130 1129 1126 ] final -135.29 input   60.00 | X-H torsion

> <Gold.Protein.ActiveResidues>
 VAL20   THR21   CYS22   GLY23   THR24   THR25   THR26   LEU27   ASN28   PRO39  
 ARG40   HIS41   VAL42   CYS44   THR45   SER46   ASP48   MET49   LEU50   PRO52  
 TYR54   TYR118  ASN119  ILE136  GLY138  SER139  PHE140  LEU141  ASN142  GLY143 
 SER144  CYS145  GLY146  SER147  TYR161  HIS163  HIS164  MET165  GLU166  LEU167 
 PRO168  THR169  GLY170  VAL171  HIS172  ALA173  PHE181  PHE185  VAL186  ASP187 
 ARG188  GLN189  THR190  ALA191  GLN192  ALA193 

> <Gold.Protein.RotatedAtoms>
  -13.9430   18.1903   75.5687 H   0  0  0  0  0  0  0  0  0  0  0  0  # atno 3372 bound_to 414 
   -3.4143   22.0643   74.3815 H   0  0  0  0  0  0  0  0  0  0  0  0  # atno 3515 bound_to 339 
   -1.8608   17.2552   72.8025 H   0  0  0  0  0  0  0  0  0  0  0  0  # atno 3523 bound_to 346 
   -8.6317   26.4104   64.0215 H   0  0  0  0  0  0  0  0  0  0  0  0  # atno 3576 bound_to 185 
   -7.5222   29.9855   64.9621 H   0  0  0  0  0  0  0  0  0  0  0  0  # atno 3663 bound_to 154 
   -3.5593   24.3163   72.0439 H   0  0  0  0  0  0  0  0  0  0  0  0  # atno 3793 bound_to 171 
   -7.6363   23.2517   72.4656 H   0  0  0  0  0  0  0  0  0  0  0  0  # atno 3800 bound_to 178 
  -15.0285    9.0614   77.4572 H   0  0  0  0  0  0  0  0  0  0  0  0  # atno 3973 bound_to 1471
  -20.6090   13.4292   64.6434 H   0  0  0  0  0  0  0  0  0  0  0  0  # atno 4183 bound_to 1244
  -12.4054   15.7313   61.7115 H   0  0  0  0  0  0  0  0  0  0  0  0  # atno 4268 bound_to 1114
  -16.2195   19.0053   58.0468 H   0  0  0  0  0  0  0  0  0  0  0  0  # atno 4280 bound_to 1130
  -11.8039   15.3048   56.3991 H   0  0  0  0  0  0  0  0  0  0  0  0  # atno 4409 bound_to 924 
  -15.6843    8.0407   78.5417 LP  0  0  0  0  0  0  0  0  0  0  0  0  # atno 4696 bound_to 1471
  -15.3237    7.5171   77.0375 LP  0  0  0  0  0  0  0  0  0  0  0  0  # atno 4697 bound_to 1471
  -15.4356   17.7555   75.0878 LP  0  0  0  0  0  0  0  0  0  0  0  0  # atno 4731 bound_to 414 
  -14.7228   16.9890   76.3412 LP  0  0  0  0  0  0  0  0  0  0  0  0  # atno 4732 bound_to 414 
  -13.6327   15.2218   60.7723 LP  0  0  0  0  0  0  0  0  0  0  0  0  # atno 4733 bound_to 1114
  -13.8827   16.3914   61.8841 LP  0  0  0  0  0  0  0  0  0  0  0  0  # atno 4734 bound_to 1114
  -11.6680   15.2912   58.0206 LP  0  0  0  0  0  0  0  0  0  0  0  0  # atno 4763 bound_to 924 
  -10.3892   14.8898   57.0878 LP  0  0  0  0  0  0  0  0  0  0  0  0  # atno 4764 bound_to 924 
  -19.8724   13.6453   63.2086 LP  0  0  0  0  0  0  0  0  0  0  0  0  # atno 4771 bound_to 1244
  -20.8841   12.3824   63.4282 LP  0  0  0  0  0  0  0  0  0  0  0  0  # atno 4772 bound_to 1244
   -6.2401   23.8447   71.8763 LP  0  0  0  0  0  0  0  0  0  0  0  0  # atno 4775 bound_to 178 
   -6.7338   22.3448   71.4601 LP  0  0  0  0  0  0  0  0  0  0  0  0  # atno 4776 bound_to 178 
   -2.1918   24.8225   72.7660 LP  0  0  0  0  0  0  0  0  0  0  0  0  # atno 4779 bound_to 171 
   -2.2039   23.4240   71.9230 LP  0  0  0  0  0  0  0  0  0  0  0  0  # atno 4780 bound_to 171 
   -8.1140   25.0336   63.3256 LP  0  0  0  0  0  0  0  0  0  0  0  0  # atno 4783 bound_to 185 
   -7.2011   26.3853   63.2464 LP  0  0  0  0  0  0  0  0  0  0  0  0  # atno 4784 bound_to 185 
   -2.8388   18.5023   73.1719 LP  0  0  0  0  0  0  0  0  0  0  0  0  # atno 4785 bound_to 346 
   -3.4703   17.1020   72.6179 LP  0  0  0  0  0  0  0  0  0  0  0  0  # atno 4786 bound_to 346 
   -3.4154   20.4841   74.7698 LP  0  0  0  0  0  0  0  0  0  0  0  0  # atno 4787 bound_to 339 
   -2.6368   21.5606   75.7193 LP  0  0  0  0  0  0  0  0  0  0  0  0  # atno 4788 bound_to 339 
   -8.5119   28.7477   65.3316 LP  0  0  0  0  0  0  0  0  0  0  0  0  # atno 4797 bound_to 154 
   -6.8928   28.5591   65.4282 LP  0  0  0  0  0  0  0  0  0  0  0  0  # atno 4798 bound_to 154 

$$$$
