#       Name:                unknown
#       Creating user name   williammccorkindale
#       Creation time:       Tue Jun  7 14:55:41 2022


#       File generated by GOLD software.
#

@<TRIPOS>MOLECULE
unknown|prepared_Mpro-x0967|mol2|1|dock2
    41    41     1
SMALL
NO_CHARGES


@<TRIPOS>ATOM
      1 C1         -15.5046   7.7199  71.7821 C.3            1 RES1               0.0000
      2 C2         -14.1523   8.2864  72.0799 C.2            1 RES1               0.0000
      3 O3         -13.7726   8.4055  73.2692 O.2            1 RES1               0.0000
      4 N4         -13.2720   8.7181  71.0265 N.am           1 RES1               0.0000
      5 C5         -11.9868   9.2762  71.5442 C.3            1 RES1               0.0000
      6 C6         -11.5019   9.8513  70.1647 C.3            1 RES1               0.0000
      7 C7         -11.7136  11.2119  69.9444 C.ar           1 RES1               0.0000
      8 C8         -11.6039  12.1170  68.9219 C.ar           1 RES1               0.0000
      9 C9         -11.8832  13.3351  68.7629 C.ar           1 RES1               0.0000
     10 C10        -12.4969  14.0885  69.9432 C.ar           1 RES1               0.0000
     11 C11        -12.6210  13.2525  70.9957 C.ar           1 RES1               0.0000
     12 C12        -12.3083  11.9693  71.1408 C.ar           1 RES1               0.0000
     13 O13        -12.8907  15.3395  69.7339 O.3            1 RES1               0.0000
     14 C14        -11.1481   8.1070  71.9298 C.2            1 RES1               0.0000
     15 O15        -11.2594   6.8896  71.7455 O.2            1 RES1               0.0000
     16 N16         -9.9645   8.5013  72.6949 N.am           1 RES1               0.0000
     17 C17         -9.1987   7.6429  73.0341 C.3            1 RES1               0.0000
     18 C18         -9.4139   6.6957  74.5133 C.1            1 RES1               0.0000
     19 C19         -9.6274   5.8046  75.8879 C.1            1 RES1               0.0000
     20 Br20        -9.8489   4.8467  77.3960 Br             1 RES1               0.0000
     21 H21        -16.0883   8.4920  71.2648 H              1 RES1               0.0000
     22 H22        -15.4355   6.8122  71.1528 H              1 RES1               0.0000
     23 H23        -16.0106   7.4767  72.7592 H              1 RES1               0.0000
     24 H24        -13.4739   8.6947  70.0763 H              1 RES1               0.0000
     25 H25        -12.0441  10.0093  72.2957 H              1 RES1               0.0000
     26 H26        -11.7480   9.1645  69.3893 H              1 RES1               0.0000
     27 H27        -10.3286   9.6200  70.3009 H              1 RES1               0.0000
     28 H28        -10.9621  11.6892  68.0895 H              1 RES1               0.0000
     29 H29        -11.8151  14.0372  67.9281 H              1 RES1               0.0000
     30 H30        -13.0376  13.7690  71.9344 H              1 RES1               0.0000
     31 H31        -12.3897  11.3056  71.9832 H              1 RES1               0.0000
     32 H32        -13.7516  15.6763  69.3989 H              1 RES1               0.0000
     33 H33         -9.7709   9.4979  72.8723 H              1 RES1               0.0000
     34 H34         -9.0763   6.5292  72.5471 H              1 RES1               0.0000
     35 H35         -8.0283   7.6636  73.3574 H              1 RES1               0.0000
     36 ****       -14.3734   8.1221  74.0167 LP             1 RES1               0.0000
     37 ****       -12.8691   8.7840  73.4701 LP             1 RES1               0.0000
     38 ****       -12.2164  15.7061  69.0928 LP             1 RES1               0.0000
     39 ****       -12.7814  15.7842  70.6230 LP             1 RES1               0.0000
     40 ****       -12.0456   6.5298  71.2430 LP             1 RES1               0.0000
     41 ****       -10.5634   6.2647  72.0990 LP             1 RES1               0.0000
@<TRIPOS>BOND
    1    1    2 1     
    2    2    3 2     
    3    2    4 am    
    4    4    5 1     
    5    5    6 1     
    6    6    7 1     
    7    7    8 ar    
    8    8    9 ar    
    9    9   10 ar    
   10   10   11 ar    
   11   11   12 ar    
   12   10   13 1     
   13    5   14 1     
   14   14   15 2     
   15   14   16 am    
   16   16   17 1     
   17   17   18 1     
   18   18   19 3     
   19   19   20 1     
   20   12    7 ar    
   21    1   21 1     
   22    1   22 1     
   23    1   23 1     
   24    4   24 1     
   25    5   25 1     
   26    6   26 1     
   27    6   27 1     
   28    8   28 1     
   29    9   29 1     
   30   11   30 1     
   31   12   31 1     
   32   13   32 1     
   33   16   33 1     
   34   17   34 1     
   35   17   35 1     
   36    3   36 1     
   37    3   37 1     
   38   13   38 1     
   39   13   39 1     
   40   15   40 1     
   41   15   41 1     
@<TRIPOS>SUBSTRUCTURE
      1 RES1           1
@<TRIPOS>SET
LONE_PAIRS      STATIC     ATOMS    <user>   **** ""
6 36 37 38 39 40 41
DONOR_HYDROGENS      STATIC     ATOMS    <user>   **** ""
3 24 32 33
ATOM$BLUE        STATIC     ATOMS    COLORGROUP SYSTEM
6 36 37 38 39 40 41
ATOM$RED        STATIC     ATOMS    COLORGROUP SYSTEM
3 24 32 33
@<TRIPOS>COMMENT
> <Gold.Version>
2022.1.0

> <Gold.Id.Protein>
6LU7|6LU7_protein|mol2

> <Gold.Protein.RotatedTorsions>
[ 3973 1471 1470 1467 ] final  -82.43 input   60.00 | X-H torsion
[ 3372  414  413  411 ] final -161.77 input   60.00 | X-H torsion
[ 4268 1114 1113 1110 ] final -172.61 input   59.99 | X-H torsion
[ 4409  924  923  921 ] final -148.79 input   59.99 | X-H torsion
[ 4183 1244 1243 1241 ] final  152.15 input   59.99 | X-H torsion
[ 3800  178  177  174 ] final    6.41 input   60.00 | X-H torsion
[ 3793  171  170  167 ] final   25.90 input   60.00 | X-H torsion
[ 3576  185  184  181 ] final   77.18 input   60.00 | X-H torsion
[ 3523  346  345  342 ] final -120.80 input   60.01 | X-H torsion
[ 3515  339  338  335 ] final   32.69 input   60.00 | X-H torsion
[ 3663  154  153  150 ] final -107.74 input   60.00 | X-H torsion
[ 4280 1130 1129 1126 ] final   52.80 input   60.00 | X-H torsion

> <Gold.Protein.ActiveResidues>
 VAL20   THR21   CYS22   GLY23   THR24   THR25   THR26   LEU27   ASN28   PRO39  
 ARG40   HIS41   VAL42   CYS44   THR45   SER46   ASP48   MET49   LEU50   PRO52  
 TYR54   TYR118  ASN119  ILE136  GLY138  SER139  PHE140  LEU141  ASN142  GLY143 
 SER144  CYS145  GLY146  SER147  TYR161  HIS163  HIS164  MET165  GLU166  LEU167 
 PRO168  THR169  GLY170  VAL171  HIS172  ALA173  PHE181  PHE185  VAL186  ASP187 
 ARG188  GLN189  THR190  ALA191  GLN192  ALA193 

> <Gold.Protein.RotatedAtoms>
  -15.3300   17.0119   75.9406 H   0  0  0  0  0  0  0  0  0  0  0  0  # atno 3372 bound_to 414 
   -3.6675   21.3097   74.1737 H   0  0  0  0  0  0  0  0  0  0  0  0  # atno 3515 bound_to 339 
   -2.5631   16.7464   72.5639 H   0  0  0  0  0  0  0  0  0  0  0  0  # atno 3523 bound_to 346 
   -8.2473   26.7545   63.9201 H   0  0  0  0  0  0  0  0  0  0  0  0  # atno 3576 bound_to 185 
   -6.9230   28.5336   65.4380 H   0  0  0  0  0  0  0  0  0  0  0  0  # atno 3663 bound_to 154 
   -3.5526   24.2114   71.9830 H   0  0  0  0  0  0  0  0  0  0  0  0  # atno 3793 bound_to 171 
   -6.0593   23.3939   71.5408 H   0  0  0  0  0  0  0  0  0  0  0  0  # atno 3800 bound_to 178 
  -15.0668    9.0991   77.6019 H   0  0  0  0  0  0  0  0  0  0  0  0  # atno 3973 bound_to 1471
  -20.0777   13.2034   62.9071 H   0  0  0  0  0  0  0  0  0  0  0  0  # atno 4183 bound_to 1244
  -13.2836   15.1249   60.7894 H   0  0  0  0  0  0  0  0  0  0  0  0  # atno 4268 bound_to 1114
  -15.6812   19.8790   59.6072 H   0  0  0  0  0  0  0  0  0  0  0  0  # atno 4280 bound_to 1130
  -11.3148   15.1888   58.1027 H   0  0  0  0  0  0  0  0  0  0  0  0  # atno 4409 bound_to 924 
  -15.7077    7.8959   78.4904 LP  0  0  0  0  0  0  0  0  0  0  0  0  # atno 4696 bound_to 1471
  -15.2618    7.6240   76.9432 LP  0  0  0  0  0  0  0  0  0  0  0  0  # atno 4697 bound_to 1471
  -13.8714   17.7124   76.1130 LP  0  0  0  0  0  0  0  0  0  0  0  0  # atno 4731 bound_to 414 
  -14.8902   18.2188   74.9416 LP  0  0  0  0  0  0  0  0  0  0  0  0  # atno 4732 bound_to 414 
  -14.1093   16.2350   61.6462 LP  0  0  0  0  0  0  0  0  0  0  0  0  # atno 4733 bound_to 1114
  -12.5217   15.9888   61.9388 LP  0  0  0  0  0  0  0  0  0  0  0  0  # atno 4734 bound_to 1114
  -10.4933   14.9144   56.7251 LP  0  0  0  0  0  0  0  0  0  0  0  0  # atno 4763 bound_to 924 
  -12.0564   15.3833   56.6674 LP  0  0  0  0  0  0  0  0  0  0  0  0  # atno 4764 bound_to 924 
  -21.0510   12.4533   63.9738 LP  0  0  0  0  0  0  0  0  0  0  0  0  # atno 4771 bound_to 1244
  -20.2406   13.8017   64.4116 LP  0  0  0  0  0  0  0  0  0  0  0  0  # atno 4772 bound_to 1244
   -7.2432   22.2988   71.7588 LP  0  0  0  0  0  0  0  0  0  0  0  0  # atno 4775 bound_to 178 
   -7.3188   23.7474   72.5088 LP  0  0  0  0  0  0  0  0  0  0  0  0  # atno 4776 bound_to 178 
   -2.2975   24.8838   72.7707 LP  0  0  0  0  0  0  0  0  0  0  0  0  # atno 4779 bound_to 171 
   -2.1050   23.4683   71.9796 LP  0  0  0  0  0  0  0  0  0  0  0  0  # atno 4780 bound_to 171 
   -8.5404   25.1863   63.5997 LP  0  0  0  0  0  0  0  0  0  0  0  0  # atno 4783 bound_to 185 
   -7.1617   25.8861   63.0744 LP  0  0  0  0  0  0  0  0  0  0  0  0  # atno 4784 bound_to 185 
   -1.9985   18.1685   73.1180 LP  0  0  0  0  0  0  0  0  0  0  0  0  # atno 4785 bound_to 346 
   -3.6034   17.9482   72.9121 LP  0  0  0  0  0  0  0  0  0  0  0  0  # atno 4786 bound_to 346 
   -2.9608   20.5949   75.4535 LP  0  0  0  0  0  0  0  0  0  0  0  0  # atno 4787 bound_to 339 
   -2.8364   22.2097   75.2449 LP  0  0  0  0  0  0  0  0  0  0  0  0  # atno 4788 bound_to 339 
   -7.4816   29.9856   64.9607 LP  0  0  0  0  0  0  0  0  0  0  0  0  # atno 4797 bound_to 154 
   -8.5267   28.7833   65.3199 LP  0  0  0  0  0  0  0  0  0  0  0  0  # atno 4798 bound_to 154 

> <Gold.Score>
     Score     S(PLP)   S(hbond)     S(cho)   S(metal)  DE(clash)   DE(tors)     intcor
     45.80     -42.37       1.88       0.00       0.00       0.29       1.30       0.68

> <Gold.PLP.Fitness>
45.7956

> <Gold.PLP.PLP>
-42.3724

> <Gold.PLP.part.hbond>
-2.7568

> <Gold.PLP.part.metal>
0.0000

> <Gold.PLP.part.buried>
-8.3956

> <Gold.PLP.part.nonpolar>
-37.0638

> <Gold.PLP.part.repulsive>
5.2125

> <Gold.PLP.ligand.clash>
0.2900

> <Gold.PLP.ligand.torsion>
1.3044

> <Gold.PLP.Chemscore.Hbond>
1.8800

> <Gold.PLP.Chemscore.CHOScore>
0.0000

> <Gold.PLP.Chemscore.Metal>
0.0000

> <Gold.Chemscore.Hbonds>
donor molecule, donor type, donor heavy atom, donor atom, acceptor molecule, acceptor atom, score
      L1  H     4    24       P1  1284  1.00
      L1  H    13    32       P1  1266  0.88

> <Gold.PLP.Chemscore.Internal.Correction>
0.6821

