#       Name:                unknown
#       Creating user name   williammccorkindale
#       Creation time:       Tue Jun  7 14:55:36 2022


#       File generated by GOLD software.
#

@<TRIPOS>MOLECULE
unknown|prepared_Mpro-x0072|mol2|1|dock4
    27    27     1
SMALL
NO_CHARGES


@<TRIPOS>ATOM
      1 C1          -8.3557  16.4182  67.0781 C.3            1 RES1               0.0000
      2 S2         -10.0875  16.7803  66.7943 S.o2           1 RES1               0.0000
      3 O3         -10.4243  18.1212  67.3659 O.2            1 RES1               0.0000
      4 O4         -10.2677  16.8567  65.3028 O.2            1 RES1               0.0000
      5 N5         -11.1083  15.5850  67.4645 N.3            1 RES1               0.0000
      6 C6         -11.0191  15.5453  68.9146 C.3            1 RES1               0.0000
      7 C7         -11.9959  14.5844  69.5126 C.3            1 RES1               0.0000
      8 C8         -12.3092  14.8849  70.9275 C.ar           1 RES1               0.0000
      9 C9         -11.7166  15.9673  71.5689 C.ar           1 RES1               0.0000
     10 C10        -12.0000  16.2580  72.8868 C.ar           1 RES1               0.0000
     11 C11        -12.8856  15.4795  73.6154 C.ar           1 RES1               0.0000
     12 C12        -13.4860  14.3928  72.9856 C.ar           1 RES1               0.0000
     13 C13        -13.1917  14.1097  71.6545 C.ar           1 RES1               0.0000
     14 H14         -7.7879  17.3499  67.2758 H              1 RES1               0.0000
     15 H15         -8.3057  15.8215  68.0102 H              1 RES1               0.0000
     16 H16         -7.9136  15.8391  66.2597 H              1 RES1               0.0000
     17 H17        -12.0832  15.7243  67.1406 H              1 RES1               0.0000
     18 H18        -10.0051  15.2341  69.2124 H              1 RES1               0.0000
     19 H19        -11.2276  16.5600  69.3390 H              1 RES1               0.0000
     20 H20        -11.5745  13.5657  69.4143 H              1 RES1               0.0000
     21 H21        -12.9592  14.6380  68.9398 H              1 RES1               0.0000
     22 H22        -11.0184  16.6063  71.0453 H              1 RES1               0.0000
     23 H23        -11.5124  17.1109  73.3386 H              1 RES1               0.0000
     24 H24        -13.1042  15.7077  74.6398 H              1 RES1               0.0000
     25 H25        -14.1735  13.7673  73.5086 H              1 RES1               0.0000
     26 H26        -13.6786  13.2482  71.1837 H              1 RES1               0.0000
     27 ****       -10.7964  14.6920  67.1399 LP             1 RES1               0.0000
@<TRIPOS>BOND
    1    1    2 1     
    2    2    3 2     
    3    2    4 2     
    4    2    5 1     
    5    5    6 1     
    6    6    7 1     
    7    7    8 1     
    8    8    9 ar    
    9    9   10 ar    
   10   10   11 ar    
   11   11   12 ar    
   12   12   13 ar    
   13    8   13 ar    
   14    1   14 1     
   15    1   15 1     
   16    1   16 1     
   17    5   17 1     
   18    6   18 1     
   19    6   19 1     
   20    7   20 1     
   21    7   21 1     
   22    9   22 1     
   23   10   23 1     
   24   11   24 1     
   25   12   25 1     
   26   13   26 1     
   27    5   27 1     
@<TRIPOS>SUBSTRUCTURE
      1 RES1           1
@<TRIPOS>SET
LONE_PAIRS      STATIC     ATOMS    <user>   **** ""
3 3 4 27
DONOR_HYDROGENS      STATIC     ATOMS    <user>   **** ""
1 17
ATOM$BLUE        STATIC     ATOMS    COLORGROUP SYSTEM
3 3 4 27
ATOM$RED        STATIC     ATOMS    COLORGROUP SYSTEM
1 17
@<TRIPOS>COMMENT
> <Gold.Version>
2022.1.0

> <Gold.Id.Protein>
6LU7|6LU7_protein|mol2

> <Gold.Protein.RotatedTorsions>
[ 3973 1471 1470 1467 ] final   96.93 input   60.00 | X-H torsion
[ 3372  414  413  411 ] final  -45.81 input   60.00 | X-H torsion
[ 4268 1114 1113 1110 ] final  -16.68 input   59.99 | X-H torsion
[ 4409  924  923  921 ] final -115.36 input   59.99 | X-H torsion
[ 4183 1244 1243 1241 ] final  -64.33 input   59.99 | X-H torsion
[ 3800  178  177  174 ] final  -83.86 input   60.00 | X-H torsion
[ 3793  171  170  167 ] final -104.53 input   60.00 | X-H torsion
[ 3576  185  184  181 ] final  -41.58 input   60.00 | X-H torsion
[ 3523  346  345  342 ] final -173.18 input   60.01 | X-H torsion
[ 3515  339  338  335 ] final  -56.80 input   60.00 | X-H torsion
[ 3663  154  153  150 ] final  100.97 input   60.00 | X-H torsion
[ 4280 1130 1129 1126 ] final  121.93 input   60.00 | X-H torsion

> <Gold.Protein.ActiveResidues>
 VAL20   THR21   CYS22   GLY23   THR24   THR25   THR26   LEU27   ASN28   PRO39  
 ARG40   HIS41   VAL42   CYS44   THR45   SER46   ASP48   MET49   LEU50   PRO52  
 TYR54   TYR118  ASN119  ILE136  GLY138  SER139  PHE140  LEU141  ASN142  GLY143 
 SER144  CYS145  GLY146  SER147  TYR161  HIS163  HIS164  MET165  GLU166  LEU167 
 PRO168  THR169  GLY170  VAL171  HIS172  ALA173  PHE181  PHE185  VAL186  ASP187 
 ARG188  GLN189  THR190  ALA191  GLN192  ALA193 

> <Gold.Protein.RotatedAtoms>
  -14.9484   18.1864   74.9430 H   0  0  0  0  0  0  0  0  0  0  0  0  # atno 3372 bound_to 414 
   -3.2332   20.4452   75.0689 H   0  0  0  0  0  0  0  0  0  0  0  0  # atno 3515 bound_to 339 
   -1.8960   17.1861   72.7749 H   0  0  0  0  0  0  0  0  0  0  0  0  # atno 3523 bound_to 346 
   -8.5488   25.2021   63.6117 H   0  0  0  0  0  0  0  0  0  0  0  0  # atno 3576 bound_to 185 
   -7.9850   29.9278   64.9700 H   0  0  0  0  0  0  0  0  0  0  0  0  # atno 3663 bound_to 154 
   -2.1543   24.7915   72.7561 H   0  0  0  0  0  0  0  0  0  0  0  0  # atno 3793 bound_to 171 
   -6.8331   22.3162   71.5059 H   0  0  0  0  0  0  0  0  0  0  0  0  # atno 3800 bound_to 178 
  -15.6171    7.3153   77.7458 H   0  0  0  0  0  0  0  0  0  0  0  0  # atno 3973 bound_to 1471
  -20.4853   13.5735   64.5980 H   0  0  0  0  0  0  0  0  0  0  0  0  # atno 4183 bound_to 1244
  -12.9523   16.3252   62.1321 H   0  0  0  0  0  0  0  0  0  0  0  0  # atno 4268 bound_to 1114
  -15.5464   18.8604   59.3377 H   0  0  0  0  0  0  0  0  0  0  0  0  # atno 4280 bound_to 1130
  -11.8040   15.3328   57.9297 H   0  0  0  0  0  0  0  0  0  0  0  0  # atno 4409 bound_to 924 
  -14.9820    8.5309   76.8700 LP  0  0  0  0  0  0  0  0  0  0  0  0  # atno 4696 bound_to 1471
  -15.4333    8.7855   78.4186 LP  0  0  0  0  0  0  0  0  0  0  0  0  # atno 4697 bound_to 1471
  -15.2904   16.9868   75.9880 LP  0  0  0  0  0  0  0  0  0  0  0  0  # atno 4731 bound_to 414 
  -13.8554   17.7616   76.0712 LP  0  0  0  0  0  0  0  0  0  0  0  0  # atno 4732 bound_to 414 
  -12.7502   15.1612   61.0130 LP  0  0  0  0  0  0  0  0  0  0  0  0  # atno 4733 bound_to 1114
  -14.2145   15.8537   61.2198 LP  0  0  0  0  0  0  0  0  0  0  0  0  # atno 4734 bound_to 1114
  -10.3892   14.8929   57.2569 LP  0  0  0  0  0  0  0  0  0  0  0  0  # atno 4763 bound_to 924 
  -11.6678   15.2599   56.3098 LP  0  0  0  0  0  0  0  0  0  0  0  0  # atno 4764 bound_to 924 
  -19.9181   13.5090   63.0741 LP  0  0  0  0  0  0  0  0  0  0  0  0  # atno 4771 bound_to 1244
  -20.9629   12.3733   63.6084 LP  0  0  0  0  0  0  0  0  0  0  0  0  # atno 4772 bound_to 1244
   -7.6008   23.3546   72.4960 LP  0  0  0  0  0  0  0  0  0  0  0  0  # atno 4775 bound_to 178 
   -6.1820   23.7769   71.8068 LP  0  0  0  0  0  0  0  0  0  0  0  0  # atno 4776 bound_to 178 
   -2.2461   23.4097   71.9016 LP  0  0  0  0  0  0  0  0  0  0  0  0  # atno 4779 bound_to 171 
   -3.5648   24.3581   72.0701 LP  0  0  0  0  0  0  0  0  0  0  0  0  # atno 4780 bound_to 171 
   -7.1655   25.8664   63.0705 LP  0  0  0  0  0  0  0  0  0  0  0  0  # atno 4783 bound_to 185 
   -8.2329   26.7694   63.9142 LP  0  0  0  0  0  0  0  0  0  0  0  0  # atno 4784 bound_to 185 
   -2.7564   18.5065   73.1800 LP  0  0  0  0  0  0  0  0  0  0  0  0  # atno 4785 bound_to 346 
   -3.5173   17.1673   72.6377 LP  0  0  0  0  0  0  0  0  0  0  0  0  # atno 4786 bound_to 346 
   -2.6730   21.8843   75.5818 LP  0  0  0  0  0  0  0  0  0  0  0  0  # atno 4787 bound_to 339 
   -3.5615   21.7909   74.2149 LP  0  0  0  0  0  0  0  0  0  0  0  0  # atno 4788 bound_to 339 
   -8.2289   28.3925   65.4511 LP  0  0  0  0  0  0  0  0  0  0  0  0  # atno 4797 bound_to 154 
   -6.7098   28.9724   65.3008 LP  0  0  0  0  0  0  0  0  0  0  0  0  # atno 4798 bound_to 154 

> <Gold.Score>
     Score     S(PLP)   S(hbond)     S(cho)   S(metal)  DE(clash)   DE(tors)     intcor
     41.71     -38.94       1.00       0.00       0.00       0.00       0.15       0.07

> <Gold.PLP.Fitness>
41.7118

> <Gold.PLP.PLP>
-38.9378

> <Gold.PLP.part.hbond>
-1.0000

> <Gold.PLP.part.metal>
0.0000

> <Gold.PLP.part.buried>
-5.8075

> <Gold.PLP.part.nonpolar>
-32.2378

> <Gold.PLP.part.repulsive>
0.1264

> <Gold.PLP.ligand.clash>
0.0000

> <Gold.PLP.ligand.torsion>
0.1464

> <Gold.PLP.Chemscore.Hbond>
1.0000

> <Gold.PLP.Chemscore.CHOScore>
0.0000

> <Gold.PLP.Chemscore.Metal>
0.0000

> <Gold.Chemscore.Hbonds>
donor molecule, donor type, donor heavy atom, donor atom, acceptor molecule, acceptor atom, score
      P1  H  1105  4261       L1     4  1.00

> <Gold.PLP.Chemscore.Internal.Correction>
0.0668

