#       Name:                /Users/williammccorkindale/ml_physics/smi2wyck/notebooks/docking/mpro_fragments/prepared_Mpro-x0072.mol2
#       Creating user name   williammccorkindale
#       Creation time:       Tue Jun  7 14:55:36 2022


#       File generated by GOLD software.
#

@<TRIPOS>MOLECULE
/Users/williammccorkindale/ml_physics/smi2wyck/notebooks/docking/mpro_fragments/prepared_Mpro-x0072.mol2
    27    27     1
SMALL
NO_CHARGES


@<TRIPOS>ATOM
      1 C1           3.2845   0.0232   1.1373 C.3            1 RES1               0.0000
      2 S2           2.9676   0.6876  -0.4964 S.o2           1 RES1               0.0000
      3 O3           3.3545   2.1321  -0.5389 O.2            1 RES1               0.0000
      4 O4           3.8686  -0.0588  -1.4418 O.2            1 RES1               0.0000
      5 N5           1.3311   0.5061  -0.9534 N.3            1 RES1               0.0000
      6 C6           0.9358  -0.8912  -1.0142 C.3            1 RES1               0.0000
      7 C7          -0.4956  -1.0545  -1.4137 C.3            1 RES1               0.0000
      8 C8          -1.4351  -0.3991  -0.4766 C.ar           1 RES1               0.0000
      9 C9          -1.9483  -1.0947   0.6128 C.ar           1 RES1               0.0000
     10 C10         -2.8244  -0.4955   1.4932 C.ar           1 RES1               0.0000
     11 C11         -3.2221   0.8210   1.3202 C.ar           1 RES1               0.0000
     12 C12         -2.7160   1.5290   0.2337 C.ar           1 RES1               0.0000
     13 C13         -1.8320   0.9129  -0.6482 C.ar           1 RES1               0.0000
     14 H14          4.0163   0.6539   1.6816 H              1 RES1               0.0000
     15 H15          2.3328   0.0979   1.6995 H              1 RES1               0.0000
     16 H16          3.5980  -1.0262   1.1045 H              1 RES1               0.0000
     17 H17          0.7198   1.0538  -0.3200 H              1 RES1               0.0000
     18 H18          1.5607  -1.4185  -1.7525 H              1 RES1               0.0000
     19 H19          1.0726  -1.3718  -0.0124 H              1 RES1               0.0000
     20 H20         -0.7074  -2.1386  -1.4839 H              1 RES1               0.0000
     21 H21         -0.6498  -0.5862  -2.4216 H              1 RES1               0.0000
     22 H22         -1.6698  -2.1242   0.7930 H              1 RES1               0.0000
     23 H23         -3.1942  -1.0804   2.3242 H              1 RES1               0.0000
     24 H24         -3.9033   1.2844   2.0061 H              1 RES1               0.0000
     25 H25         -2.9953   2.5440   0.0626 H              1 RES1               0.0000
     26 H26         -1.4492   1.4937  -1.4949 H              1 RES1               0.0000
     27 ****         1.2247   0.8680  -1.8795 LP             1 RES1               0.0000
@<TRIPOS>BOND
    1    1    2 1     
    2    2    3 2     
    3    2    4 2     
    4    2    5 1     
    5    5    6 1     
    6    6    7 1     
    7    7    8 1     
    8    8    9 ar    
    9    9   10 ar    
   10   10   11 ar    
   11   11   12 ar    
   12   12   13 ar    
   13    8   13 ar    
   14    1   14 1     
   15    1   15 1     
   16    1   16 1     
   17    5   17 1     
   18    6   18 1     
   19    6   19 1     
   20    7   20 1     
   21    7   21 1     
   22    9   22 1     
   23   10   23 1     
   24   11   24 1     
   25   12   25 1     
   26   13   26 1     
   27    5   27 1     
@<TRIPOS>SUBSTRUCTURE
      1 RES1           1
@<TRIPOS>SET
LONE_PAIRS      STATIC     ATOMS    <user>   **** ""
3 3 4 27
DONOR_HYDROGENS      STATIC     ATOMS    <user>   **** ""
1 17
ATOM$BLUE        STATIC     ATOMS    COLORGROUP SYSTEM
3 3 4 27
ATOM$RED        STATIC     ATOMS    COLORGROUP SYSTEM
1 17
