unknown|prepared_Mpro-x2193|sdf|1|dock5
  -GOLD-   5 72214353D 1   1.00000     0.00000

 32 33  0  0  0  0  0  0  0  0  1 V2000
  -10.5049   19.2471   66.2537 C   0  0  0  0  0  0  0  0  0  0  0  0
   -9.8115   17.6115   66.3885 S   0  0  0  0  0  0  0  0  0  0  0  0
   -8.3122   17.6890   66.4466 O   0  0  0  0  0  0  0  0  0  0  0  0
  -10.2242   16.7701   65.1894 O   0  0  0  0  0  0  0  0  0  0  0  0
  -10.4784   16.8682   67.8313 C   0  0  0  0  0  0  0  0  0  0  0  0
  -11.2471   15.7277   67.7557 C   0  0  0  0  0  0  0  0  0  0  0  0
  -11.7748   15.1375   68.8820 C   0  0  0  0  0  0  0  0  0  0  0  0
  -11.5601   15.6593   70.1478 C   0  0  0  0  0  0  0  0  0  0  0  0
  -10.7959   16.7945   70.2368 C   0  0  0  0  0  0  0  0  0  0  0  0
  -10.2615   17.3913   69.0871 C   0  0  0  0  0  0  0  0  0  0  0  0
  -12.0765   15.0561   71.3115 N   0  0  0  0  0  0  0  0  0  0  0  0
  -11.7527   15.5733   72.6122 C   0  0  0  0  0  0  0  0  0  0  0  0
  -13.0562   15.8641   73.3440 C   0  0  0  0  0  0  0  0  0  0  0  0
  -13.8903   14.7077   73.3427 N   0  0  0  0  0  0  0  0  0  0  0  0
  -14.2090   14.2458   72.0024 C   0  0  0  0  0  0  0  0  0  0  0  0
  -12.9350   13.8870   71.2619 C   0  0  0  0  0  0  0  0  0  0  0  0
   -9.7454   19.9977   66.6013 H   0  0  0  0  0  0  0  0  0  0  0  0
  -11.4148   19.3703   66.8652 H   0  0  0  0  0  0  0  0  0  0  0  0
  -10.7512   19.4399   65.1871 H   0  0  0  0  0  0  0  0  0  0  0  0
  -11.4238   15.3050   66.7562 H   0  0  0  0  0  0  0  0  0  0  0  0
  -12.3781   14.2405   68.7742 H   0  0  0  0  0  0  0  0  0  0  0  0
  -10.6026   17.2192   71.2115 H   0  0  0  0  0  0  0  0  0  0  0  0
   -9.6740   18.2713   69.1963 H   0  0  0  0  0  0  0  0  0  0  0  0
  -11.2891   14.7264   73.1863 H   0  0  0  0  0  0  0  0  0  0  0  0
  -11.0945   16.4379   72.6280 H   0  0  0  0  0  0  0  0  0  0  0  0
  -13.5138   16.7500   72.8471 H   0  0  0  0  0  0  0  0  0  0  0  0
  -12.7756   16.0827   74.3949 H   0  0  0  0  0  0  0  0  0  0  0  0
  -14.7782   14.8599   73.8348 H   0  0  0  0  0  0  0  0  0  0  0  0
  -14.8700   13.3521   72.1277 H   0  0  0  0  0  0  0  0  0  0  0  0
  -14.7005   15.0602   71.4329 H   0  0  0  0  0  0  0  0  0  0  0  0
  -13.1538   13.5845   70.2431 H   0  0  0  0  0  0  0  0  0  0  0  0
  -12.4025   13.0554   71.7984 H   0  0  0  0  0  0  0  0  0  0  0  0
  1  2  1  0  0  0  0
  2  3  2  0  0  0  0
  2  4  2  0  0  0  0
  2  5  1  0  0  0  0
  5  6  2  0  0  0  0
  6  7  1  0  0  0  0
  7  8  2  0  0  0  0
  8  9  1  0  0  0  0
  9 10  2  0  0  0  0
  8 11  1  0  0  0  0
 11 12  1  0  0  0  0
 12 13  1  0  0  0  0
 13 14  1  0  0  0  0
 14 15  1  0  0  0  0
 15 16  1  0  0  0  0
 10  5  1  0  0  0  0
 16 11  1  0  0  0  0
  1 17  1  0  0  0  0
  1 18  1  0  0  0  0
  1 19  1  0  0  0  0
  6 20  1  0  0  0  0
  7 21  1  0  0  0  0
  9 22  1  0  0  0  0
 10 23  1  0  0  0  0
 12 24  1  0  0  0  0
 12 25  1  0  0  0  0
 13 26  1  0  0  0  0
 13 27  1  0  0  0  0
 14 28  1  0  0  0  0
 15 29  1  0  0  0  0
 15 30  1  0  0  0  0
 16 31  1  0  0  0  0
 16 32  1  0  0  0  0
M  END
> <Gold.Version>
2022.1.0

> <Gold.Id.Protein>
6LU7|6LU7_protein|mol2

> <Gold.PLP.Fitness>
47.1433

> <Gold.PLP.PLP>
-44.2052

> <Gold.PLP.part.hbond>
-2.8257

> <Gold.PLP.part.metal>
0.0000

> <Gold.PLP.part.buried>
-3.6483

> <Gold.PLP.part.nonpolar>
-38.1025

> <Gold.PLP.part.repulsive>
0.0797

> <Gold.PLP.ligand.clash>
0.0000

> <Gold.PLP.ligand.torsion>
1.1419

> <Gold.PLP.Chemscore.Hbond>
1.0000

> <Gold.PLP.Chemscore.CHOScore>
0.0000

> <Gold.PLP.Chemscore.Metal>
0.0000

> <Gold.Chemscore.Hbonds>
donor molecule, donor type, donor heavy atom, donor atom, acceptor molecule, acceptor atom, score
      P1  H  1105  4261       L1     4  1.00

> <Gold.PLP.Chemscore.Internal.Correction>
2.2218

> <Gold.Protein.RotatedTorsions>
[ 3973 1471 1470 1467 ] final -111.43 input   60.00 | X-H torsion
[ 3372  414  413  411 ] final   -6.90 input   60.00 | X-H torsion
[ 4268 1114 1113 1110 ] final   76.55 input   59.99 | X-H torsion
[ 4409  924  923  921 ] final   -3.53 input   59.99 | X-H torsion
[ 4183 1244 1243 1241 ] final  -43.74 input   59.99 | X-H torsion
[ 3800  178  177  174 ] final   90.19 input   60.00 | X-H torsion
[ 3793  171  170  167 ] final  136.31 input   60.00 | X-H torsion
[ 3576  185  184  181 ] final  -44.38 input   60.00 | X-H torsion
[ 3523  346  345  342 ] final -155.17 input   60.01 | X-H torsion
[ 3515  339  338  335 ] final  172.81 input   60.00 | X-H torsion
[ 3663  154  153  150 ] final   -0.79 input   60.00 | X-H torsion
[ 4280 1130 1129 1126 ] final  151.78 input   60.00 | X-H torsion

> <Gold.Protein.ActiveResidues>
 VAL20   THR21   CYS22   GLY23   THR24   THR25   THR26   LEU27   ASN28   PRO39  
 ARG40   HIS41   VAL42   CYS44   THR45   SER46   ASP48   MET49   LEU50   PRO52  
 TYR54   TYR118  ASN119  ILE136  GLY138  SER139  PHE140  LEU141  ASN142  GLY143 
 SER144  CYS145  GLY146  SER147  TYR161  HIS163  HIS164  MET165  GLU166  LEU167 
 PRO168  THR169  GLY170  VAL171  HIS172  ALA173  PHE181  PHE185  VAL186  ASP187 
 ARG188  GLN189  THR190  ALA191  GLN192  ALA193 

> <Gold.Protein.RotatedAtoms>
  -14.3764   18.3458   75.1336 H   0  0  0  0  0  0  0  0  0  0  0  0  # atno 3372 bound_to 414 
   -2.7203   22.0125   75.4802 H   0  0  0  0  0  0  0  0  0  0  0  0  # atno 3515 bound_to 339 
   -2.0713   16.9699   72.6832 H   0  0  0  0  0  0  0  0  0  0  0  0  # atno 3523 bound_to 346 
   -8.5183   25.1777   63.5880 H   0  0  0  0  0  0  0  0  0  0  0  0  # atno 3576 bound_to 185 
   -8.4248   28.6057   65.3811 H   0  0  0  0  0  0  0  0  0  0  0  0  # atno 3663 bound_to 154 
   -2.2365   23.4201   71.9081 H   0  0  0  0  0  0  0  0  0  0  0  0  # atno 3793 bound_to 171 
   -6.8277   24.0001   72.3189 H   0  0  0  0  0  0  0  0  0  0  0  0  # atno 3800 bound_to 178 
  -15.2254    9.0630   78.0415 H   0  0  0  0  0  0  0  0  0  0  0  0  # atno 3973 bound_to 1471
  -20.6941   13.3178   64.6523 H   0  0  0  0  0  0  0  0  0  0  0  0  # atno 4183 bound_to 1244
  -14.1625   16.1482   61.5357 H   0  0  0  0  0  0  0  0  0  0  0  0  # atno 4268 bound_to 1114
  -15.6790   18.6212   58.9404 H   0  0  0  0  0  0  0  0  0  0  0  0  # atno 4280 bound_to 1130
  -11.7762   15.2961   56.3797 H   0  0  0  0  0  0  0  0  0  0  0  0  # atno 4409 bound_to 924 
  -15.7168    7.5203   78.2046 LP  0  0  0  0  0  0  0  0  0  0  0  0  # atno 4696 bound_to 1471
  -15.0929    8.0359   76.7863 LP  0  0  0  0  0  0  0  0  0  0  0  0  # atno 4697 bound_to 1471
  -15.5558   17.2879   75.5048 LP  0  0  0  0  0  0  0  0  0  0  0  0  # atno 4731 bound_to 414 
  -14.1662   17.3000   76.3625 LP  0  0  0  0  0  0  0  0  0  0  0  0  # atno 4732 bound_to 414 
  -12.6075   16.0888   62.0117 LP  0  0  0  0  0  0  0  0  0  0  0  0  # atno 4733 bound_to 1114
  -13.1383   15.1044   60.8217 LP  0  0  0  0  0  0  0  0  0  0  0  0  # atno 4734 bound_to 1114
  -11.6982   15.3000   58.0050 LP  0  0  0  0  0  0  0  0  0  0  0  0  # atno 4763 bound_to 924 
  -10.3868   14.8897   57.1228 LP  0  0  0  0  0  0  0  0  0  0  0  0  # atno 4764 bound_to 924 
  -19.8551   13.7302   63.3203 LP  0  0  0  0  0  0  0  0  0  0  0  0  # atno 4771 bound_to 1244
  -20.8157   12.4097   63.3075 LP  0  0  0  0  0  0  0  0  0  0  0  0  # atno 4772 bound_to 1244
   -6.1849   22.8527   71.3605 LP  0  0  0  0  0  0  0  0  0  0  0  0  # atno 4775 bound_to 178 
   -7.6033   22.5830   72.1235 LP  0  0  0  0  0  0  0  0  0  0  0  0  # atno 4776 bound_to 178 
   -3.5655   24.3463   72.0628 LP  0  0  0  0  0  0  0  0  0  0  0  0  # atno 4779 bound_to 171 
   -2.1626   24.8027   72.7630 LP  0  0  0  0  0  0  0  0  0  0  0  0  # atno 4780 bound_to 171 
   -7.1574   25.9109   63.0796 LP  0  0  0  0  0  0  0  0  0  0  0  0  # atno 4783 bound_to 185 
   -8.2718   26.7496   63.9290 LP  0  0  0  0  0  0  0  0  0  0  0  0  # atno 4784 bound_to 185 
   -2.4642   18.4660   73.1884 LP  0  0  0  0  0  0  0  0  0  0  0  0  # atno 4785 bound_to 346 
   -3.6330   17.4255   72.7216 LP  0  0  0  0  0  0  0  0  0  0  0  0  # atno 4786 bound_to 346 
   -3.6131   21.6334   74.1736 LP  0  0  0  0  0  0  0  0  0  0  0  0  # atno 4787 bound_to 339 
   -3.1380   20.4634   75.2090 LP  0  0  0  0  0  0  0  0  0  0  0  0  # atno 4788 bound_to 339 
   -6.8003   28.7005   65.3853 LP  0  0  0  0  0  0  0  0  0  0  0  0  # atno 4797 bound_to 154 
   -7.6955   29.9959   64.9526 LP  0  0  0  0  0  0  0  0  0  0  0  0  # atno 4798 bound_to 154 

$$$$
