#       Name:                unknown
#       Creating user name   williammccorkindale
#       Creation time:       Tue Jun  7 14:55:42 2022


#       File generated by GOLD software.
#

@<TRIPOS>MOLECULE
unknown|prepared_Mpro-x0395|mol2|1|dock4
    29    30     1
SMALL
NO_CHARGES


@<TRIPOS>ATOM
      1 C1         -12.3171  13.1928  64.0198 C.3            1 RES1               0.0000
      2 C2         -11.9797  13.5587  65.4426 C.2            1 RES1               0.0000
      3 N3         -11.6152  14.7406  65.9287 N.2            1 RES1               0.0000
      4 N4         -11.3674  14.8718  67.1568 N.2            1 RES1               0.0000
      5 C5         -11.4680  13.8307  67.9765 C.2            1 RES1               0.0000
      6 C6         -11.2351  13.7229  69.4397 C.3            1 RES1               0.0000
      7 N7         -12.1199  14.5167  70.2177 N.3            1 RES1               0.0000
      8 C8         -11.3858  15.6155  70.8106 C.3            1 RES1               0.0000
      9 C9         -11.7006  15.7875  72.2916 C.3            1 RES1               0.0000
     10 C10        -13.1873  15.8381  72.3906 C.2            1 RES1               0.0000
     11 C11        -13.8358  14.8183  71.8122 C.2            1 RES1               0.0000
     12 F12        -15.1684  14.6966  71.8013 F              1 RES1               0.0000
     13 C13        -12.9176  13.8051  71.1647 C.3            1 RES1               0.0000
     14 S14        -11.9527  12.6074  66.8643 S.3            1 RES1               0.0000
     15 H15        -13.3332  13.4999  63.7723 H              1 RES1               0.0000
     16 H16        -12.2463  12.0903  63.9620 H              1 RES1               0.0000
     17 H17        -11.5281  13.6660  63.3957 H              1 RES1               0.0000
     18 H18        -10.1963  14.0139  69.6838 H              1 RES1               0.0000
     19 H19        -11.3256  12.6483  69.7159 H              1 RES1               0.0000
     20 H20        -10.3022  15.4510  70.6715 H              1 RES1               0.0000
     21 H21        -11.7440  16.5434  70.3193 H              1 RES1               0.0000
     22 H22        -11.3051  14.9452  72.8946 H              1 RES1               0.0000
     23 H23        -11.2179  16.7252  72.6141 H              1 RES1               0.0000
     24 H24        -13.7421  16.6133  72.8788 H              1 RES1               0.0000
     25 H25        -12.3630  13.3396  71.9862 H              1 RES1               0.0000
     26 H26        -13.5500  13.0506  70.6878 H              1 RES1               0.0000
     27 ****       -11.5374  15.5284  65.3177 LP             1 RES1               0.0000
     28 ****       -11.0937  15.7638  67.5167 LP             1 RES1               0.0000
     29 ****       -12.8071  14.8759  69.5863 LP             1 RES1               0.0000
@<TRIPOS>BOND
    1    1    2 1     
    2    2    3 2     
    3    3    4 1     
    4    4    5 2     
    5    5    6 1     
    6    6    7 1     
    7    7    8 1     
    8    8    9 1     
    9    9   10 1     
   10   10   11 2     
   11   11   12 1     
   12   11   13 1     
   13    5   14 1     
   14   14    2 1     
   15   13    7 1     
   16    1   15 1     
   17    1   16 1     
   18    1   17 1     
   19    6   18 1     
   20    6   19 1     
   21    8   20 1     
   22    8   21 1     
   23    9   22 1     
   24    9   23 1     
   25   10   24 1     
   26   13   25 1     
   27   13   26 1     
   28    3   27 1     
   29    4   28 1     
   30    7   29 1     
@<TRIPOS>SUBSTRUCTURE
      1 RES1           1
@<TRIPOS>SET
LONE_PAIRS      STATIC     ATOMS    <user>   **** ""
3 27 28 29
ATOM$BLUE        STATIC     ATOMS    COLORGROUP SYSTEM
3 27 28 29
@<TRIPOS>COMMENT
> <Gold.Version>
2022.1.0

> <Gold.Id.Protein>
6LU7|6LU7_protein|mol2

> <Gold.Protein.RotatedTorsions>
[ 3973 1471 1470 1467 ] final   85.52 input   60.00 | X-H torsion
[ 3372  414  413  411 ] final   39.22 input   60.00 | X-H torsion
[ 4268 1114 1113 1110 ] final  179.21 input   59.99 | X-H torsion
[ 4409  924  923  921 ] final   39.53 input   59.99 | X-H torsion
[ 4183 1244 1243 1241 ] final  -63.29 input   59.99 | X-H torsion
[ 3800  178  177  174 ] final  -29.73 input   60.00 | X-H torsion
[ 3793  171  170  167 ] final  148.64 input   60.00 | X-H torsion
[ 3576  185  184  181 ] final -149.41 input   60.00 | X-H torsion
[ 3523  346  345  342 ] final -132.47 input   60.01 | X-H torsion
[ 3515  339  338  335 ] final -138.87 input   60.00 | X-H torsion
[ 3663  154  153  150 ] final  -33.92 input   60.00 | X-H torsion
[ 4280 1130 1129 1126 ] final  -55.34 input   60.00 | X-H torsion

> <Gold.Protein.ActiveResidues>
 VAL20   THR21   CYS22   GLY23   THR24   THR25   THR26   LEU27   ASN28   PRO39  
 ARG40   HIS41   VAL42   CYS44   THR45   SER46   ASP48   MET49   LEU50   PRO52  
 TYR54   TYR118  ASN119  ILE136  GLY138  SER139  PHE140  LEU141  ASN142  GLY143 
 SER144  CYS145  GLY146  SER147  TYR161  HIS163  HIS164  MET165  GLU166  LEU167 
 PRO168  THR169  GLY170  VAL171  HIS172  ALA173  PHE181  PHE185  VAL186  ASP187 
 ARG188  GLN189  THR190  ALA191  GLN192  ALA193 

> <Gold.Protein.RotatedAtoms>
  -13.9012   18.1365   75.6515 H   0  0  0  0  0  0  0  0  0  0  0  0  # atno 3372 bound_to 414 
   -2.6633   21.2969   75.7480 H   0  0  0  0  0  0  0  0  0  0  0  0  # atno 3515 bound_to 339 
   -2.3803   16.7899   72.5940 H   0  0  0  0  0  0  0  0  0  0  0  0  # atno 3523 bound_to 346 
   -7.2272   25.6782   63.0493 H   0  0  0  0  0  0  0  0  0  0  0  0  # atno 3576 bound_to 185 
   -8.0171   28.2802   65.4940 H   0  0  0  0  0  0  0  0  0  0  0  0  # atno 3663 bound_to 154 
   -2.0744   23.4938   72.0015 H   0  0  0  0  0  0  0  0  0  0  0  0  # atno 3793 bound_to 171 
   -6.1903   22.8567   71.3629 H   0  0  0  0  0  0  0  0  0  0  0  0  # atno 3800 bound_to 178 
  -15.5605    7.3040   77.5688 H   0  0  0  0  0  0  0  0  0  0  0  0  # atno 3973 bound_to 1471
  -20.4962   13.5616   64.6034 H   0  0  0  0  0  0  0  0  0  0  0  0  # atno 4183 bound_to 1244
  -13.4133   15.1517   60.7723 H   0  0  0  0  0  0  0  0  0  0  0  0  # atno 4268 bound_to 1114
  -16.3984   20.1669   58.3030 H   0  0  0  0  0  0  0  0  0  0  0  0  # atno 4280 bound_to 1130
  -11.1314   15.0999   56.2465 H   0  0  0  0  0  0  0  0  0  0  0  0  # atno 4409 bound_to 924 
  -14.9677    8.6931   76.9629 LP  0  0  0  0  0  0  0  0  0  0  0  0  # atno 4696 bound_to 1471
  -15.5045    8.6346   78.5040 LP  0  0  0  0  0  0  0  0  0  0  0  0  # atno 4697 bound_to 1471
  -15.3789   17.8342   75.0405 LP  0  0  0  0  0  0  0  0  0  0  0  0  # atno 4731 bound_to 414 
  -14.8216   16.9644   76.3052 LP  0  0  0  0  0  0  0  0  0  0  0  0  # atno 4732 bound_to 414 
  -14.0385   16.3018   61.7389 LP  0  0  0  0  0  0  0  0  0  0  0  0  # atno 4733 bound_to 1114
  -12.4619   15.8951   61.8633 LP  0  0  0  0  0  0  0  0  0  0  0  0  # atno 4734 bound_to 1114
  -12.1371   15.4224   57.4844 LP  0  0  0  0  0  0  0  0  0  0  0  0  # atno 4763 bound_to 924 
  -10.5973   14.9649   57.7776 LP  0  0  0  0  0  0  0  0  0  0  0  0  # atno 4764 bound_to 924 
  -19.9132   13.5216   63.0847 LP  0  0  0  0  0  0  0  0  0  0  0  0  # atno 4771 bound_to 1244
  -20.9569   12.3728   63.5923 LP  0  0  0  0  0  0  0  0  0  0  0  0  # atno 4772 bound_to 1244
   -7.6028   22.5821   72.1228 LP  0  0  0  0  0  0  0  0  0  0  0  0  # atno 4775 bound_to 178 
   -6.8273   24.0050   72.3240 LP  0  0  0  0  0  0  0  0  0  0  0  0  # atno 4776 bound_to 178 
   -3.5533   24.1714   71.9615 LP  0  0  0  0  0  0  0  0  0  0  0  0  # atno 4779 bound_to 171 
   -2.3381   24.9035   72.7702 LP  0  0  0  0  0  0  0  0  0  0  0  0  # atno 4780 bound_to 171 
   -8.0585   26.8323   63.8399 LP  0  0  0  0  0  0  0  0  0  0  0  0  # atno 4783 bound_to 185 
   -8.6710   25.3240   63.7112 LP  0  0  0  0  0  0  0  0  0  0  0  0  # atno 4784 bound_to 185 
   -2.1351   18.2980   73.1539 LP  0  0  0  0  0  0  0  0  0  0  0  0  # atno 4785 bound_to 346 
   -3.6510   17.7748   72.8459 LP  0  0  0  0  0  0  0  0  0  0  0  0  # atno 4786 bound_to 346 
   -3.2775   22.2153   74.5534 LP  0  0  0  0  0  0  0  0  0  0  0  0  # atno 4787 bound_to 339 
   -3.5310   20.6022   74.5595 LP  0  0  0  0  0  0  0  0  0  0  0  0  # atno 4788 bound_to 339 
   -6.7053   29.2052   65.2267 LP  0  0  0  0  0  0  0  0  0  0  0  0  # atno 4797 bound_to 154 
   -8.2011   29.8189   64.9975 LP  0  0  0  0  0  0  0  0  0  0  0  0  # atno 4798 bound_to 154 

> <Gold.Score>
     Score     S(PLP)   S(hbond)     S(cho)   S(metal)  DE(clash)   DE(tors)     intcor
     40.28     -41.73       0.00       0.00       0.00       0.00       0.73       0.02

> <Gold.PLP.Fitness>
40.2801

> <Gold.PLP.PLP>
-41.7282

> <Gold.PLP.part.hbond>
0.0000

> <Gold.PLP.part.metal>
0.0000

> <Gold.PLP.part.buried>
-5.5911

> <Gold.PLP.part.nonpolar>
-36.6821

> <Gold.PLP.part.repulsive>
0.2841

> <Gold.PLP.ligand.clash>
0.0000

> <Gold.PLP.ligand.torsion>
0.7341

> <Gold.PLP.Chemscore.Hbond>
0.0000

> <Gold.PLP.Chemscore.CHOScore>
0.0000

> <Gold.PLP.Chemscore.Metal>
0.0000

> <Gold.PLP.Chemscore.Internal.Correction>
0.0201

