#       Name:                unknown
#       Creating user name   williammccorkindale
#       Creation time:       Tue Jun  7 14:55:34 2022


#       File generated by GOLD software.
#

@<TRIPOS>MOLECULE
unknown|prepared_Mpro-x0354|mol2|1|dock3
    43    44     1
SMALL
NO_CHARGES


@<TRIPOS>ATOM
      1 C1         -10.2434   5.3142  71.1215 C.3            1 RES1               0.0000
      2 N2         -11.4007   5.8524  70.4761 N.3            1 RES1               0.0000
      3 C3         -11.0734   6.4139  69.2014 C.3            1 RES1               0.0000
      4 C4         -10.2974   7.7223  69.3318 C.3            1 RES1               0.0000
      5 N5         -11.0706   8.5786  70.1855 N.am           1 RES1               0.0000
      6 C6         -11.4773   8.0993  71.4797 C.3            1 RES1               0.0000
      7 C7         -12.1558   6.7620  71.2766 C.3            1 RES1               0.0000
      8 C8         -11.4224   9.8746  69.7495 C.2            1 RES1               0.0000
      9 O9         -11.0796  10.3180  68.6204 O.2            1 RES1               0.0000
     10 C10        -12.2201  10.7425  70.6469 C.3            1 RES1               0.0000
     11 O11        -12.2554  12.0368  70.0978 O.3            1 RES1               0.0000
     12 C12        -12.4041  13.1262  70.9590 C.ar           1 RES1               0.0000
     13 C13        -11.8733  14.3630  70.6579 C.ar           1 RES1               0.0000
     14 C14        -12.0228  15.4371  71.5122 C.ar           1 RES1               0.0000
     15 C15        -12.7068  15.3361  72.7073 C.ar           1 RES1               0.0000
     16 C16        -12.8643  16.4960  73.6224 C.3            1 RES1               0.0000
     17 C17        -13.2373  14.0962  73.0060 C.ar           1 RES1               0.0000
     18 C18        -13.0878  13.0219  72.1519 C.ar           1 RES1               0.0000
     19 H19         -9.3851   5.1643  70.4084 H              1 RES1               0.0000
     20 H20         -9.9215   5.9600  71.9647 H              1 RES1               0.0000
     21 H21        -10.5065   4.2764  71.4662 H              1 RES1               0.0000
     22 H22        -12.0039   6.6523  68.6647 H              1 RES1               0.0000
     23 H23        -10.4135   5.7064  68.6713 H              1 RES1               0.0000
     24 H24         -9.2847   7.5439  69.7475 H              1 RES1               0.0000
     25 H25        -10.1988   8.1094  68.2926 H              1 RES1               0.0000
     26 H26        -10.6250   7.9743  72.1734 H              1 RES1               0.0000
     27 H27        -12.1933   8.7897  71.9343 H              1 RES1               0.0000
     28 H28        -13.1111   6.9757  70.7233 H              1 RES1               0.0000
     29 H29        -12.3972   6.3648  72.2660 H              1 RES1               0.0000
     30 H30        -11.7928  10.7561  71.6790 H              1 RES1               0.0000
     31 H31        -13.2615  10.3291  70.7818 H              1 RES1               0.0000
     32 H32        -11.3311  14.4634  69.7215 H              1 RES1               0.0000
     33 H33        -11.5988  16.4141  71.2657 H              1 RES1               0.0000
     34 H34        -11.9507  16.5869  74.2581 H              1 RES1               0.0000
     35 H35        -13.0777  17.4349  73.0692 H              1 RES1               0.0000
     36 H36        -13.7159  16.3409  74.3082 H              1 RES1               0.0000
     37 H37        -13.7773  14.0046  73.9433 H              1 RES1               0.0000
     38 H38        -13.5164  12.0488  72.4087 H              1 RES1               0.0000
     39 ****       -12.0089   5.0719  70.3315 LP             1 RES1               0.0000
     40 ****       -10.5410   9.7465  68.0013 LP             1 RES1               0.0000
     41 ****       -11.3463  11.2413  68.3438 LP             1 RES1               0.0000
     42 ****       -13.0207  12.0631  69.4548 LP             1 RES1               0.0000
     43 ****       -11.3978  12.1693  69.6008 LP             1 RES1               0.0000
@<TRIPOS>BOND
    1    1    2 1     
    2    2    3 1     
    3    3    4 1     
    4    4    5 1     
    5    5    6 1     
    6    6    7 1     
    7    5    8 am    
    8    8    9 2     
    9    8   10 1     
   10   10   11 1     
   11   11   12 1     
   12   12   13 ar    
   13   13   14 ar    
   14   14   15 ar    
   15   15   16 1     
   16   15   17 ar    
   17   17   18 ar    
   18    7    2 1     
   19   12   18 ar    
   20    1   19 1     
   21    1   20 1     
   22    1   21 1     
   23    3   22 1     
   24    3   23 1     
   25    4   24 1     
   26    4   25 1     
   27    6   26 1     
   28    6   27 1     
   29    7   28 1     
   30    7   29 1     
   31   10   30 1     
   32   10   31 1     
   33   13   32 1     
   34   14   33 1     
   35   16   34 1     
   36   16   35 1     
   37   16   36 1     
   38   17   37 1     
   39   18   38 1     
   40    2   39 1     
   41    9   40 1     
   42    9   41 1     
   43   11   42 1     
   44   11   43 1     
@<TRIPOS>SUBSTRUCTURE
      1 RES1           1
@<TRIPOS>SET
LONE_PAIRS      STATIC     ATOMS    <user>   **** ""
5 39 40 41 42 43
ATOM$BLUE        STATIC     ATOMS    COLORGROUP SYSTEM
5 39 40 41 42 43
@<TRIPOS>COMMENT
> <Gold.Version>
2022.1.0

> <Gold.Id.Protein>
6LU7|6LU7_protein|mol2

> <Gold.Protein.RotatedTorsions>
[ 3973 1471 1470 1467 ] final -107.40 input   60.00 | X-H torsion
[ 3372  414  413  411 ] final  -45.50 input   60.00 | X-H torsion
[ 4268 1114 1113 1110 ] final  -34.44 input   59.99 | X-H torsion
[ 4409  924  923  921 ] final -101.19 input   59.99 | X-H torsion
[ 4183 1244 1243 1241 ] final  -82.09 input   59.99 | X-H torsion
[ 3800  178  177  174 ] final  -46.56 input   60.00 | X-H torsion
[ 3793  171  170  167 ] final  -20.93 input   60.00 | X-H torsion
[ 3576  185  184  181 ] final  -37.39 input   60.00 | X-H torsion
[ 3523  346  345  342 ] final -104.86 input   60.01 | X-H torsion
[ 3515  339  338  335 ] final   30.01 input   60.00 | X-H torsion
[ 3663  154  153  150 ] final   55.23 input   60.00 | X-H torsion
[ 4280 1130 1129 1126 ] final   96.68 input   60.00 | X-H torsion

> <Gold.Protein.ActiveResidues>
 VAL20   THR21   CYS22   GLY23   THR24   THR25   THR26   LEU27   ASN28   PRO39  
 ARG40   HIS41   VAL42   CYS44   THR45   SER46   ASP48   MET49   LEU50   PRO52  
 TYR54   TYR118  ASN119  ILE136  GLY138  SER139  PHE140  LEU141  ASN142  GLY143 
 SER144  CYS145  GLY146  SER147  TYR161  HIS163  HIS164  MET165  GLU166  LEU167 
 PRO168  THR169  GLY170  VAL171  HIS172  ALA173  PHE181  PHE185  VAL186  ASP187 
 ARG188  GLN189  THR190  ALA191  GLN192  ALA193 

> <Gold.Protein.RotatedAtoms>
  -14.9440   18.1888   74.9433 H   0  0  0  0  0  0  0  0  0  0  0  0  # atno 3372 bound_to 414 
   -3.6702   21.2664   74.1802 H   0  0  0  0  0  0  0  0  0  0  0  0  # atno 3515 bound_to 339 
   -2.8219   16.7452   72.5431 H   0  0  0  0  0  0  0  0  0  0  0  0  # atno 3523 bound_to 346 
   -8.5920   25.2418   63.6468 H   0  0  0  0  0  0  0  0  0  0  0  0  # atno 3576 bound_to 185 
   -8.5051   29.4395   65.1137 H   0  0  0  0  0  0  0  0  0  0  0  0  # atno 3663 bound_to 154 
   -3.3491   24.7961   72.3958 H   0  0  0  0  0  0  0  0  0  0  0  0  # atno 3793 bound_to 171 
   -6.3482   22.6330   71.3539 H   0  0  0  0  0  0  0  0  0  0  0  0  # atno 3800 bound_to 178 
  -15.2005    9.0816   77.9835 H   0  0  0  0  0  0  0  0  0  0  0  0  # atno 3973 bound_to 1471
  -20.3012   13.7521   64.4647 H   0  0  0  0  0  0  0  0  0  0  0  0  # atno 4183 bound_to 1244
  -12.7131   16.1783   62.0637 H   0  0  0  0  0  0  0  0  0  0  0  0  # atno 4268 bound_to 1114
  -15.5226   19.1987   59.5665 H   0  0  0  0  0  0  0  0  0  0  0  0  # atno 4280 bound_to 1130
  -11.9678   15.3791   57.7736 H   0  0  0  0  0  0  0  0  0  0  0  0  # atno 4409 bound_to 924 
  -15.7213    7.5639   78.2542 LP  0  0  0  0  0  0  0  0  0  0  0  0  # atno 4696 bound_to 1471
  -15.1134    7.9735   76.7950 LP  0  0  0  0  0  0  0  0  0  0  0  0  # atno 4697 bound_to 1471
  -15.2938   16.9881   75.9845 LP  0  0  0  0  0  0  0  0  0  0  0  0  # atno 4731 bound_to 414 
  -13.8565   17.7578   76.0745 LP  0  0  0  0  0  0  0  0  0  0  0  0  # atno 4732 bound_to 414 
  -12.9992   15.1073   60.8724 LP  0  0  0  0  0  0  0  0  0  0  0  0  # atno 4733 bound_to 1114
  -14.2064   16.0556   61.4292 LP  0  0  0  0  0  0  0  0  0  0  0  0  # atno 4734 bound_to 1114
  -10.4364   14.9112   57.4839 LP  0  0  0  0  0  0  0  0  0  0  0  0  # atno 4763 bound_to 924 
  -11.4556   15.1949   56.2400 LP  0  0  0  0  0  0  0  0  0  0  0  0  # atno 4764 bound_to 924 
  -20.0281   13.2803   62.9315 LP  0  0  0  0  0  0  0  0  0  0  0  0  # atno 4771 bound_to 1244
  -21.0383   12.4221   63.8852 LP  0  0  0  0  0  0  0  0  0  0  0  0  # atno 4772 bound_to 1244
   -7.6790   22.7987   72.2758 LP  0  0  0  0  0  0  0  0  0  0  0  0  # atno 4775 bound_to 178 
   -6.5921   24.0137   72.1800 LP  0  0  0  0  0  0  0  0  0  0  0  0  # atno 4776 bound_to 178 
   -1.7976   24.3513   72.6030 LP  0  0  0  0  0  0  0  0  0  0  0  0  # atno 4779 bound_to 171 
   -2.8099   23.4119   71.7316 LP  0  0  0  0  0  0  0  0  0  0  0  0  # atno 4780 bound_to 171 
   -7.1812   25.8004   63.0589 LP  0  0  0  0  0  0  0  0  0  0  0  0  # atno 4783 bound_to 185 
   -8.1738   26.7954   63.8904 LP  0  0  0  0  0  0  0  0  0  0  0  0  # atno 4784 bound_to 185 
   -1.8611   17.9559   73.0523 LP  0  0  0  0  0  0  0  0  0  0  0  0  # atno 4785 bound_to 346 
   -3.4802   18.1619   72.9988 LP  0  0  0  0  0  0  0  0  0  0  0  0  # atno 4786 bound_to 346 
   -2.9385   20.6201   75.4821 LP  0  0  0  0  0  0  0  0  0  0  0  0  # atno 4787 bound_to 339 
   -2.8559   22.2281   75.2097 LP  0  0  0  0  0  0  0  0  0  0  0  0  # atno 4788 bound_to 339 
   -7.5233   28.2089   65.5255 LP  0  0  0  0  0  0  0  0  0  0  0  0  # atno 4797 bound_to 154 
   -6.8915   29.6478   65.0816 LP  0  0  0  0  0  0  0  0  0  0  0  0  # atno 4798 bound_to 154 

> <Gold.Score>
     Score     S(PLP)   S(hbond)     S(cho)   S(metal)  DE(clash)   DE(tors)     intcor
     44.58     -45.83       0.00       0.00       0.00       0.00       0.63       0.00

> <Gold.PLP.Fitness>
44.5764

> <Gold.PLP.PLP>
-45.8278

> <Gold.PLP.part.hbond>
0.0000

> <Gold.PLP.part.metal>
0.0000

> <Gold.PLP.part.buried>
-5.0387

> <Gold.PLP.part.nonpolar>
-42.1835

> <Gold.PLP.part.repulsive>
0.2758

> <Gold.PLP.ligand.clash>
0.0000

> <Gold.PLP.ligand.torsion>
0.6270

> <Gold.PLP.Chemscore.Hbond>
0.0000

> <Gold.PLP.Chemscore.CHOScore>
0.0000

> <Gold.PLP.Chemscore.Metal>
0.0000

> <Gold.PLP.Chemscore.Internal.Correction>
0.0027

