#       Name:                unknown
#       Creating user name   williammccorkindale
#       Creation time:       Tue Jun  7 14:55:40 2022


#       File generated by GOLD software.
#

@<TRIPOS>MOLECULE
unknown|prepared_Mpro-x1093|mol2|1|dock1
    41    43     1
SMALL
NO_CHARGES


@<TRIPOS>ATOM
      1 C1         -12.6897  16.1668  74.0980 C.3            1 RES1               0.0000
      2 N2         -12.3807  15.1839  73.1129 N.3            1 RES1               0.0000
      3 C3         -13.4748  14.3738  72.6796 C.3            1 RES1               0.0000
      4 C4         -12.9166  13.2704  71.8053 C.3            1 RES1               0.0000
      5 N5         -12.2541  13.8536  70.6625 N.am           1 RES1               0.0000
      6 C6         -11.9052  15.2550  70.6916 C.3            1 RES1               0.0000
      7 C7         -11.4778  15.6092  72.0947 C.3            1 RES1               0.0000
      8 C8         -11.9702  13.0256  69.5498 C.2            1 RES1               0.0000
      9 O9         -12.3086  11.8201  69.6040 O.2            1 RES1               0.0000
     10 C10        -11.3001  13.5431  68.3556 C.3            1 RES1               0.0000
     11 C11        -10.9934  12.4889  67.3655 C.2            1 RES1               0.0000
     12 C12        -10.2854  11.3343  67.6093 C.2            1 RES1               0.0000
     13 N13        -10.2326  10.6606  66.4558 N.pl3          1 RES1               0.0000
     14 C14        -10.8746  11.3372  65.4974 C.ar           1 RES1               0.0000
     15 N15        -11.1219  11.1227  64.1809 N.ar           1 RES1               0.0000
     16 C16        -11.8027  11.9565  63.3950 C.ar           1 RES1               0.0000
     17 C17        -12.3003  13.1245  63.9345 C.ar           1 RES1               0.0000
     18 C18        -12.0936  13.4207  65.2687 C.ar           1 RES1               0.0000
     19 C19        -11.3809  12.5181  66.0321 C.ar           1 RES1               0.0000
     20 H20        -13.2786  15.7433  74.9335 H              1 RES1               0.0000
     21 H21        -11.7017  16.5729  74.4619 H              1 RES1               0.0000
     22 H22        -13.2182  17.0406  73.6637 H              1 RES1               0.0000
     23 H23        -13.9176  13.9168  73.6098 H              1 RES1               0.0000
     24 H24        -14.2747  14.9444  72.1448 H              1 RES1               0.0000
     25 H25        -13.6944  12.5335  71.5223 H              1 RES1               0.0000
     26 H26        -12.1035  12.7877  72.4170 H              1 RES1               0.0000
     27 H27        -11.0040  15.4513  70.0395 H              1 RES1               0.0000
     28 H28        -12.7315  15.9091  70.3677 H              1 RES1               0.0000
     29 H29        -10.5077  15.0526  72.2659 H              1 RES1               0.0000
     30 H30        -11.1993  16.6845  72.1667 H              1 RES1               0.0000
     31 H31        -10.3617  14.0521  68.6776 H              1 RES1               0.0000
     32 H32        -11.9384  14.3123  67.8619 H              1 RES1               0.0000
     33 H33         -9.8484  11.0304  68.5744 H              1 RES1               0.0000
     34 H34         -9.7612   9.7485  66.3290 H              1 RES1               0.0000
     35 H35        -11.9931  11.7772  62.3451 H              1 RES1               0.0000
     36 H36        -12.8579  13.8288  63.3354 H              1 RES1               0.0000
     37 H37        -12.4466  14.3051  65.7625 H              1 RES1               0.0000
     38 ****       -11.8321  14.5233  73.6254 LP             1 RES1               0.0000
     39 ****       -12.7669  11.4656  70.4190 LP             1 RES1               0.0000
     40 ****       -12.1203  11.2128  68.8322 LP             1 RES1               0.0000
     41 ****       -10.7690  10.2811  63.7719 LP             1 RES1               0.0000
@<TRIPOS>BOND
    1    1    2 1     
    2    2    3 1     
    3    3    4 1     
    4    4    5 1     
    5    5    6 1     
    6    6    7 1     
    7    5    8 am    
    8    8    9 2     
    9    8   10 1     
   10   10   11 1     
   11   11   12 2     
   12   12   13 1     
   13   13   14 1     
   14   14   15 ar    
   15   15   16 ar    
   16   16   17 ar    
   17   17   18 ar    
   18   18   19 ar    
   19    7    2 1     
   20   19   11 1     
   21   19   14 ar    
   22    1   20 1     
   23    1   21 1     
   24    1   22 1     
   25    3   23 1     
   26    3   24 1     
   27    4   25 1     
   28    4   26 1     
   29    6   27 1     
   30    6   28 1     
   31    7   29 1     
   32    7   30 1     
   33   10   31 1     
   34   10   32 1     
   35   12   33 1     
   36   13   34 1     
   37   16   35 1     
   38   17   36 1     
   39   18   37 1     
   40    2   38 1     
   41    9   39 1     
   42    9   40 1     
   43   15   41 1     
@<TRIPOS>SUBSTRUCTURE
      1 RES1           1
@<TRIPOS>SET
LONE_PAIRS      STATIC     ATOMS    <user>   **** ""
4 38 39 40 41
DONOR_HYDROGENS      STATIC     ATOMS    <user>   **** ""
1 34
ATOM$BLUE        STATIC     ATOMS    COLORGROUP SYSTEM
4 38 39 40 41
ATOM$RED        STATIC     ATOMS    COLORGROUP SYSTEM
1 34
@<TRIPOS>COMMENT
> <Gold.Version>
2022.1.0

> <Gold.Id.Protein>
6LU7|6LU7_protein|mol2

> <Gold.Protein.RotatedTorsions>
[ 3973 1471 1470 1467 ] final -166.90 input   60.00 | X-H torsion
[ 3372  414  413  411 ] final  114.64 input   60.00 | X-H torsion
[ 4268 1114 1113 1110 ] final -160.67 input   59.99 | X-H torsion
[ 4409  924  923  921 ] final   93.37 input   59.99 | X-H torsion
[ 4183 1244 1243 1241 ] final  116.76 input   59.99 | X-H torsion
[ 3800  178  177  174 ] final   94.12 input   60.00 | X-H torsion
[ 3793  171  170  167 ] final  134.17 input   60.00 | X-H torsion
[ 3576  185  184  181 ] final   68.49 input   60.00 | X-H torsion
[ 3523  346  345  342 ] final -164.26 input   60.01 | X-H torsion
[ 3515  339  338  335 ] final  119.46 input   60.00 | X-H torsion
[ 3663  154  153  150 ] final  173.82 input   60.00 | X-H torsion
[ 4280 1130 1129 1126 ] final -122.71 input   60.00 | X-H torsion

> <Gold.Protein.ActiveResidues>
 VAL20   THR21   CYS22   GLY23   THR24   THR25   THR26   LEU27   ASN28   PRO39  
 ARG40   HIS41   VAL42   CYS44   THR45   SER46   ASP48   MET49   LEU50   PRO52  
 TYR54   TYR118  ASN119  ILE136  GLY138  SER139  PHE140  LEU141  ASN142  GLY143 
 SER144  CYS145  GLY146  SER147  TYR161  HIS163  HIS164  MET165  GLU166  LEU167 
 PRO168  THR169  GLY170  VAL171  HIS172  ALA173  PHE181  PHE185  VAL186  ASP187 
 ARG188  GLN189  THR190  ALA191  GLN192  ALA193 

> <Gold.Protein.RotatedAtoms>
  -14.1891   17.2879   76.3646 H   0  0  0  0  0  0  0  0  0  0  0  0  # atno 3372 bound_to 414 
   -3.1150   22.2923   74.7928 H   0  0  0  0  0  0  0  0  0  0  0  0  # atno 3515 bound_to 339 
   -1.9736   17.0722   72.7277 H   0  0  0  0  0  0  0  0  0  0  0  0  # atno 3523 bound_to 346 
   -8.3637   26.6845   63.9612 H   0  0  0  0  0  0  0  0  0  0  0  0  # atno 3576 bound_to 185 
   -6.9110   29.6619   65.0790 H   0  0  0  0  0  0  0  0  0  0  0  0  # atno 3663 bound_to 154 
   -2.2667   23.4109   71.8934 H   0  0  0  0  0  0  0  0  0  0  0  0  # atno 3793 bound_to 171 
   -6.8836   23.9875   72.3480 H   0  0  0  0  0  0  0  0  0  0  0  0  # atno 3800 bound_to 178 
  -15.5711    8.4491   78.5542 H   0  0  0  0  0  0  0  0  0  0  0  0  # atno 3973 bound_to 1471
  -20.4168   12.7466   62.9196 H   0  0  0  0  0  0  0  0  0  0  0  0  # atno 4183 bound_to 1244
  -13.0957   15.1100   60.8385 H   0  0  0  0  0  0  0  0  0  0  0  0  # atno 4268 bound_to 1114
  -16.2976   19.1840   57.9833 H   0  0  0  0  0  0  0  0  0  0  0  0  # atno 4280 bound_to 1130
  -10.4828   14.9143   56.7597 H   0  0  0  0  0  0  0  0  0  0  0  0  # atno 4409 bound_to 924 
  -15.4924    7.3268   77.3786 LP  0  0  0  0  0  0  0  0  0  0  0  0  # atno 4696 bound_to 1471
  -14.9692    8.8476   77.0959 LP  0  0  0  0  0  0  0  0  0  0  0  0  # atno 4697 bound_to 1471
  -14.3518   18.3491   75.1417 LP  0  0  0  0  0  0  0  0  0  0  0  0  # atno 4731 bound_to 414 
  -15.5587   17.3042   75.4859 LP  0  0  0  0  0  0  0  0  0  0  0  0  # atno 4732 bound_to 414 
  -14.1829   16.1212   61.5044 LP  0  0  0  0  0  0  0  0  0  0  0  0  # atno 4733 bound_to 1114
  -12.6372   16.1177   62.0311 LP  0  0  0  0  0  0  0  0  0  0  0  0  # atno 4734 bound_to 1114
  -12.0380   15.3772   56.6376 LP  0  0  0  0  0  0  0  0  0  0  0  0  # atno 4763 bound_to 924 
  -11.3497   15.1971   58.1075 LP  0  0  0  0  0  0  0  0  0  0  0  0  # atno 4764 bound_to 924 
  -20.9969   12.7829   64.4395 LP  0  0  0  0  0  0  0  0  0  0  0  0  # atno 4771 bound_to 1244
  -19.9532   13.9322   63.9332 LP  0  0  0  0  0  0  0  0  0  0  0  0  # atno 4772 bound_to 1244
   -6.1558   22.9097   71.3698 LP  0  0  0  0  0  0  0  0  0  0  0  0  # atno 4775 bound_to 178 
   -7.5762   22.5387   72.0849 LP  0  0  0  0  0  0  0  0  0  0  0  0  # atno 4776 bound_to 178 
   -3.5633   24.3761   72.0813 LP  0  0  0  0  0  0  0  0  0  0  0  0  # atno 4779 bound_to 171 
   -2.1343   24.7822   72.7593 LP  0  0  0  0  0  0  0  0  0  0  0  0  # atno 4780 bound_to 171 
   -8.4391   25.1187   63.5251 LP  0  0  0  0  0  0  0  0  0  0  0  0  # atno 4783 bound_to 185 
   -7.1458   26.0241   63.1077 LP  0  0  0  0  0  0  0  0  0  0  0  0  # atno 4784 bound_to 185 
   -2.6102   18.4973   73.1882 LP  0  0  0  0  0  0  0  0  0  0  0  0  # atno 4785 bound_to 346 
   -3.5853   17.2913   72.6770 LP  0  0  0  0  0  0  0  0  0  0  0  0  # atno 4786 bound_to 346 
   -3.6244   20.8081   74.3619 LP  0  0  0  0  0  0  0  0  0  0  0  0  # atno 4787 bound_to 339 
   -2.7291   21.0069   75.7130 LP  0  0  0  0  0  0  0  0  0  0  0  0  # atno 4788 bound_to 339 
   -8.5199   29.4206   65.1171 LP  0  0  0  0  0  0  0  0  0  0  0  0  # atno 4797 bound_to 154 
   -7.5003   28.2121   65.5250 LP  0  0  0  0  0  0  0  0  0  0  0  0  # atno 4798 bound_to 154 

> <Gold.Score>
     Score     S(PLP)   S(hbond)     S(cho)   S(metal)  DE(clash)   DE(tors)     intcor
     52.58     -49.69       0.00       1.00       0.00       0.00       0.06       0.00

> <Gold.PLP.Fitness>
52.5756

> <Gold.PLP.PLP>
-49.6899

> <Gold.PLP.part.hbond>
0.0000

> <Gold.PLP.part.metal>
0.0000

> <Gold.PLP.part.buried>
-6.6240

> <Gold.PLP.part.nonpolar>
-44.4304

> <Gold.PLP.part.repulsive>
0.4492

> <Gold.PLP.ligand.clash>
0.0000

> <Gold.PLP.ligand.torsion>
0.0573

> <Gold.PLP.Chemscore.Hbond>
0.0000

> <Gold.PLP.Chemscore.CHOScore>
1.0000

> <Gold.PLP.Chemscore.Metal>
0.0000

> <Gold.Chemscore.Hbonds>
donor molecule, donor type, donor heavy atom, donor atom, acceptor molecule, acceptor atom, score
      L1  C    16    35       P1  1081  1.00

> <Gold.PLP.Chemscore.Internal.Correction>
0.0004

