#       Name:                /Users/williammccorkindale/ml_physics/smi2wyck/notebooks/docking/mpro_fragments/prepared_Mpro-x2193.sdf
#       Creating user name   williammccorkindale
#       Creation time:       Tue Jun  7 14:44:34 2022


#       File generated by GOLD software.
#

@<TRIPOS>MOLECULE
/Users/williammccorkindale/ml_physics/smi2wyck/notebooks/docking/mpro_fragments/prepared_Mpro-x2193.sdf|gold_prepared_Mpro-x2193_m1|mol2|1|dock5
    33    34     1
_m1|mol2|1|dock5
NO_CHARGES


@<TRIPOS>ATOM
      1 ****       -12.3176  15.0159  64.6416 C.3            1 S1                 0.0000
      2 ****       -10.8536  15.1967  65.6406 S.o2           1 S1                 0.0000
      3 ****       -10.1695  16.4964  65.3245 O.2            1 S1                 0.0000
      4 ****        -9.8940  14.0463  65.3718 O.2            1 S1                 0.0000
      5 ****       -11.3443  15.1151  67.3233 C.ar           1 S1                 0.0000
      6 ****       -11.7664  13.9310  67.8864 C.ar           1 S1                 0.0000
      7 ****       -12.1535  13.8572  69.2055 C.ar           1 S1                 0.0000
      8 ****       -12.1385  14.9685  70.0336 C.ar           1 S1                 0.0000
      9 ****       -11.7199  16.1536  69.4851 C.ar           1 S1                 0.0000
     10 ****       -11.3272  16.2230  68.1417 C.ar           1 S1                 0.0000
     11 ****       -12.5126  14.9051  71.3903 N.pl3          1 S1                 0.0000
     12 ****       -11.5773  15.2451  72.4265 C.3            1 S1                 0.0000
     13 ****       -12.2071  16.3238  73.2977 C.3            1 S1                 0.0000
     14 ****       -13.4899  15.9009  73.7548 N.3            1 S1                 0.0000
     15 ****       -14.4032  15.5983  72.6659 C.3            1 S1                 0.0000
     16 ****       -13.8361  14.4823  71.8096 C.3            1 S1                 0.0000
     17 ****       -12.6318  16.0259  64.2644 H              1 S1                 0.0000
     18 ****       -13.1608  14.5819  65.2051 H              1 S1                 0.0000
     19 ****       -12.0773  14.3591  63.7778 H              1 S1                 0.0000
     20 ****       -11.7822  13.0429  67.2386 H              1 S1                 0.0000
     21 ****       -12.4825  12.9026  69.6063 H              1 S1                 0.0000
     22 ****       -11.6877  17.0356  70.1087 H              1 S1                 0.0000
     23 ****       -11.0089  17.1603  67.7521 H              1 S1                 0.0000
     24 ****       -11.5037  14.3472  73.0975 H              1 S1                 0.0000
     25 ****       -10.5868  15.5419  72.0921 H              1 S1                 0.0000
     26 ****       -12.2311  17.2563  72.6887 H              1 S1                 0.0000
     27 ****       -11.5459  16.4284  74.1823 H              1 S1                 0.0000
     28 ****       -13.9461  16.5985  74.3539 H              1 S1                 0.0000
     29 ****       -15.3684  15.2931  73.1418 H              1 S1                 0.0000
     30 ****       -14.5148  16.4874  72.0130 H              1 S1                 0.0000
     31 ****       -14.4854  14.2770  70.9648 H              1 S1                 0.0000
     32 ****       -13.7121  13.5518  72.4276 H              1 S1                 0.0000
     33 ****       -13.3025  15.0710  74.2803 LP             1 S1                 0.0000
@<TRIPOS>BOND
    1    1    2 1     
    2    2    3 2     
    3    2    4 2     
    4    2    5 1     
    5    5    6 ar    
    6    6    7 ar    
    7    7    8 ar    
    8    8    9 ar    
    9    9   10 ar    
   10    8   11 1     
   11   11   12 1     
   12   12   13 1     
   13   13   14 1     
   14   14   15 1     
   15   15   16 1     
   16   10    5 ar    
   17   16   11 1     
   18    1   17 1     
   19    1   18 1     
   20    1   19 1     
   21    6   20 1     
   22    7   21 1     
   23    9   22 1     
   24   10   23 1     
   25   12   24 1     
   26   12   25 1     
   27   13   26 1     
   28   13   27 1     
   29   14   28 1     
   30   15   29 1     
   31   15   30 1     
   32   16   31 1     
   33   16   32 1     
   34   14   33 1     
@<TRIPOS>SUBSTRUCTURE
      1 S1             1
@<TRIPOS>SET
LONE_PAIRS      STATIC     ATOMS    <user>   **** ""
3 3 4 33
DONOR_HYDROGENS      STATIC     ATOMS    <user>   **** ""
1 28
ATOM$BLUE        STATIC     ATOMS    COLORGROUP SYSTEM
3 3 4 33
ATOM$RED        STATIC     ATOMS    COLORGROUP SYSTEM
1 28
@<TRIPOS>COMMENT
> <Gold.Version>
2022.1.0

> <Gold.Id.Protein>
6LU7|6LU7_protein|mol2

> <Gold.Protein.RotatedTorsions>
[ 3973 1471 1470 1467 ] final -112.09 input   60.00 | X-H torsion
[ 3372  414  413  411 ] final  121.15 input   60.00 | X-H torsion
[ 4268 1114 1113 1110 ] final   25.93 input   59.99 | X-H torsion
[ 4409  924  923  921 ] final   19.56 input   59.99 | X-H torsion
[ 4183 1244 1243 1241 ] final  176.52 input   59.99 | X-H torsion
[ 3800  178  177  174 ] final   94.28 input   60.00 | X-H torsion
[ 3793  171  170  167 ] final -158.17 input   60.00 | X-H torsion
[ 3576  185  184  181 ] final  105.81 input   60.00 | X-H torsion
[ 3523  346  345  342 ] final  -89.53 input   60.01 | X-H torsion
[ 3515  339  338  335 ] final  129.70 input   60.00 | X-H torsion
[ 3663  154  153  150 ] final   21.13 input   60.00 | X-H torsion
[ 4280 1130 1129 1126 ] final  -89.75 input   60.00 | X-H torsion

> <Gold.Protein.ActiveResidues>
 VAL20   THR21   CYS22   GLY23   THR24   THR25   THR26   LEU27   ASN28   PRO39  
 ARG40   HIS41   VAL42   CYS44   THR45   SER46   ASP48   MET49   LEU50   PRO52  
 TYR54   TYR118  ASN119  ILE136  GLY138  SER139  PHE140  LEU141  ASN142  GLY143 
 SER144  CYS145  GLY146  SER147  TYR161  HIS163  HIS164  MET165  GLU166  LEU167 
 PRO168  THR169  GLY170  VAL171  HIS172  ALA173  PHE181  PHE185  VAL186  ASP187 
 ARG188  GLN189  THR190  ALA191  GLN192  ALA193 

> <Gold.Protein.RotatedAtoms>
  -14.2710   17.2222   76.3825 H   0  0  0  0  0  0  0  0  0  0  0  0  # atno 3372 bound_to 414 
   -3.0244   22.2979   74.9332 H   0  0  0  0  0  0  0  0  0  0  0  0  # atno 3515 bound_to 339 
   -3.0637   16.8075   72.5465 H   0  0  0  0  0  0  0  0  0  0  0  0  # atno 3523 bound_to 346 
   -7.8363   26.8476   63.7286 H   0  0  0  0  0  0  0  0  0  0  0  0  # atno 3576 bound_to 185 
   -8.5598   28.9187   65.2784 H   0  0  0  0  0  0  0  0  0  0  0  0  # atno 3663 bound_to 154 
   -1.7488   24.1084   72.4693 H   0  0  0  0  0  0  0  0  0  0  0  0  # atno 3793 bound_to 171 
   -6.8858   23.9870   72.3491 H   0  0  0  0  0  0  0  0  0  0  0  0  # atno 3800 bound_to 178 
  -15.2295    9.0595   78.0508 H   0  0  0  0  0  0  0  0  0  0  0  0  # atno 3973 bound_to 1471
  -19.9197   13.5180   63.0868 H   0  0  0  0  0  0  0  0  0  0  0  0  # atno 4183 bound_to 1244
  -13.6137   16.4507   62.0336 H   0  0  0  0  0  0  0  0  0  0  0  0  # atno 4268 bound_to 1114
  -16.4219   19.7000   58.0061 H   0  0  0  0  0  0  0  0  0  0  0  0  # atno 4280 bound_to 1130
  -11.4423   15.1933   56.2444 H   0  0  0  0  0  0  0  0  0  0  0  0  # atno 4409 bound_to 924 
  -15.7159    7.5135   78.1962 LP  0  0  0  0  0  0  0  0  0  0  0  0  # atno 4696 bound_to 1471
  -15.0897    8.0462   76.7853 LP  0  0  0  0  0  0  0  0  0  0  0  0  # atno 4697 bound_to 1471
  -14.2640   18.3432   75.2029 LP  0  0  0  0  0  0  0  0  0  0  0  0  # atno 4731 bound_to 414 
  -15.5641   17.3762   75.4066 LP  0  0  0  0  0  0  0  0  0  0  0  0  # atno 4732 bound_to 414 
  -12.4025   15.5100   61.4894 LP  0  0  0  0  0  0  0  0  0  0  0  0  # atno 4733 bound_to 1114
  -13.8961   15.3786   60.8425 LP  0  0  0  0  0  0  0  0  0  0  0  0  # atno 4734 bound_to 1114
  -11.9809   15.3806   57.7685 LP  0  0  0  0  0  0  0  0  0  0  0  0  # atno 4763 bound_to 924 
  -10.4404   14.9126   57.4956 LP  0  0  0  0  0  0  0  0  0  0  0  0  # atno 4764 bound_to 924 
  -20.9580   12.3729   63.5953 LP  0  0  0  0  0  0  0  0  0  0  0  0  # atno 4771 bound_to 1244
  -20.4926   13.5654   64.6091 LP  0  0  0  0  0  0  0  0  0  0  0  0  # atno 4772 bound_to 1244
   -6.1547   22.9120   71.3702 LP  0  0  0  0  0  0  0  0  0  0  0  0  # atno 4775 bound_to 178 
   -7.5750   22.5370   72.0834 LP  0  0  0  0  0  0  0  0  0  0  0  0  # atno 4776 bound_to 178 
   -3.0693   23.5234   71.7197 LP  0  0  0  0  0  0  0  0  0  0  0  0  # atno 4779 bound_to 171 
   -3.1500   24.9325   72.5409 LP  0  0  0  0  0  0  0  0  0  0  0  0  # atno 4780 bound_to 171 
   -8.7735   25.5209   63.8255 LP  0  0  0  0  0  0  0  0  0  0  0  0  # atno 4783 bound_to 185 
   -7.3425   25.4577   63.0415 LP  0  0  0  0  0  0  0  0  0  0  0  0  # atno 4784 bound_to 185 
   -1.7913   17.7268   72.9753 LP  0  0  0  0  0  0  0  0  0  0  0  0  # atno 4785 bound_to 346 
   -3.3064   18.3282   73.0724 LP  0  0  0  0  0  0  0  0  0  0  0  0  # atno 4786 bound_to 346 
   -3.6564   20.9498   74.2766 LP  0  0  0  0  0  0  0  0  0  0  0  0  # atno 4787 bound_to 339 
   -2.7885   20.8596   75.6569 LP  0  0  0  0  0  0  0  0  0  0  0  0  # atno 4788 bound_to 339 
   -7.0195   28.4288   65.4669 LP  0  0  0  0  0  0  0  0  0  0  0  0  # atno 4797 bound_to 154 
   -7.3403   29.9524   64.9744 LP  0  0  0  0  0  0  0  0  0  0  0  0  # atno 4798 bound_to 154 

> <Gold.Score>
     Score     S(PLP)   S(hbond)     S(cho)   S(metal)  DE(clash)   DE(tors)     intcor
     47.27     -46.50       1.01       0.00       0.00       0.00       2.24       2.22

> <Gold.PLP.Fitness>
47.2703

> <Gold.PLP.PLP>
-46.4990

> <Gold.PLP.part.hbond>
-2.7060

> <Gold.PLP.part.metal>
0.0000

> <Gold.PLP.part.buried>
-7.2487

> <Gold.PLP.part.nonpolar>
-38.3234

> <Gold.PLP.part.repulsive>
0.3185

> <Gold.PLP.ligand.clash>
0.0000

> <Gold.PLP.ligand.torsion>
2.2392

> <Gold.PLP.Chemscore.Hbond>
1.0095

> <Gold.PLP.Chemscore.CHOScore>
0.0000

> <Gold.PLP.Chemscore.Metal>
0.0000

> <Gold.Chemscore.Hbonds>
donor molecule, donor type, donor heavy atom, donor atom, acceptor molecule, acceptor atom, score
      L1  H    14    28       P1  1441  0.02
      P1  H  1105  4261       L1     3  0.99

> <Gold.PLP.Chemscore.Internal.Correction>
2.2214

