#       Name:                /Users/williammccorkindale/ml_physics/smi2wyck/notebooks/docking/mpro_fragments/prepared_Mpro-x0305.mol2
#       Creating user name   williammccorkindale
#       Creation time:       Tue Jun  7 14:55:36 2022


#       File generated by GOLD software.
#

@<TRIPOS>MOLECULE
/Users/williammccorkindale/ml_physics/smi2wyck/notebooks/docking/mpro_fragments/prepared_Mpro-x0305.mol2
    22    22     1
SMALL
NO_CHARGES


@<TRIPOS>ATOM
      1 C1          -2.7537   0.7551  -0.3149 C.3            1 RES1               0.0000
      2 C2          -2.4523  -0.4706   0.5058 C.3            1 RES1               0.0000
      3 N3          -1.2967  -1.1876   0.0843 N.pl3          1 RES1               0.0000
      4 C4          -0.0021  -0.6107   0.0547 C.ar           1 RES1               0.0000
      5 C5           1.1053  -1.3161  -0.3551 C.ar           1 RES1               0.0000
      6 C6           2.3740  -0.7820  -0.3941 C.ar           1 RES1               0.0000
      7 C7           2.5517   0.5239  -0.0048 C.ar           1 RES1               0.0000
      8 C8           3.8371   1.1586  -0.0143 C.1            1 RES1               0.0000
      9 N9           4.8836   1.6681  -0.0057 N.1            1 RES1               0.0000
     10 C10          1.4531   1.2266   0.4027 C.ar           1 RES1               0.0000
     11 N11          0.2092   0.6745   0.4319 N.ar           1 RES1               0.0000
     12 H12         -1.8570   1.3374  -0.5872 H              1 RES1               0.0000
     13 H13         -3.2865   0.5163  -1.2573 H              1 RES1               0.0000
     14 H14         -3.4793   1.3680   0.2877 H              1 RES1               0.0000
     15 H15         -3.3482  -1.1041   0.5001 H              1 RES1               0.0000
     16 H16         -2.2691  -0.1061   1.5549 H              1 RES1               0.0000
     17 H17         -1.3929  -2.1779  -0.2174 H              1 RES1               0.0000
     18 H18          0.9924  -2.3552  -0.6696 H              1 RES1               0.0000
     19 H19          3.2185  -1.3700  -0.7227 H              1 RES1               0.0000
     20 H20          1.5126   2.2518   0.7217 H              1 RES1               0.0000
     21 ****         5.7827   2.1058   0.0017 LP             1 RES1               0.0000
     22 ****        -0.5651   1.2284   0.7379 LP             1 RES1               0.0000
@<TRIPOS>BOND
    1    1    2 1     
    2    2    3 1     
    3    3    4 1     
    4    4    5 ar    
    5    5    6 ar    
    6    6    7 ar    
    7    7    8 1     
    8    8    9 3     
    9    7   10 ar    
   10   10   11 ar    
   11    4   11 ar    
   12    1   12 1     
   13    1   13 1     
   14    1   14 1     
   15    2   15 1     
   16    2   16 1     
   17    3   17 1     
   18    5   18 1     
   19    6   19 1     
   20   10   20 1     
   21    9   21 1     
   22   11   22 1     
@<TRIPOS>SUBSTRUCTURE
      1 RES1           1
@<TRIPOS>SET
LONE_PAIRS      STATIC     ATOMS    <user>   **** ""
2 21 22
DONOR_HYDROGENS      STATIC     ATOMS    <user>   **** ""
1 17
ATOM$BLUE        STATIC     ATOMS    COLORGROUP SYSTEM
2 21 22
ATOM$RED        STATIC     ATOMS    COLORGROUP SYSTEM
1 17
