#       Name:                unknown
#       Creating user name   williammccorkindale
#       Creation time:       Tue Jun  7 14:55:40 2022


#       File generated by GOLD software.
#

@<TRIPOS>MOLECULE
unknown|prepared_Mpro-x0946|mol2|1|dock1
    18    18     1
SMALL
NO_CHARGES


@<TRIPOS>ATOM
      1 Br1        -12.8977  15.8801  73.9045 Br             1 RES1               0.0000
      2 C2         -12.3965  15.3666  72.1425 C.ar           1 RES1               0.0000
      3 C3         -11.4991  16.1025  71.3771 C.ar           1 RES1               0.0000
      4 C4         -11.1637  15.6906  70.0994 C.ar           1 RES1               0.0000
      5 C5         -11.7010  14.5475  69.5438 C.ar           1 RES1               0.0000
      6 S6         -11.2575  14.0519  67.9249 S.o2           1 RES1               0.0000
      7 N7         -12.6025  14.4029  66.8787 N.3            1 RES1               0.0000
      8 O8         -10.0766  14.7829  67.4205 O.2            1 RES1               0.0000
      9 O9         -11.0894  12.5708  67.9364 O.2            1 RES1               0.0000
     10 C10        -12.5924  13.8143  70.3009 C.ar           1 RES1               0.0000
     11 C11        -12.9392  14.2215  71.5950 C.ar           1 RES1               0.0000
     12 H12        -11.0846  16.9947  71.8207 H              1 RES1               0.0000
     13 H13        -10.4587  16.2740  69.5056 H              1 RES1               0.0000
     14 H14        -12.2203  15.0515  66.1354 H              1 RES1               0.0000
     15 H15        -13.3145  14.9337  67.4141 H              1 RES1               0.0000
     16 H16        -13.0003  12.9252  69.8481 H              1 RES1               0.0000
     17 H17        -13.6381  13.6335  72.1698 H              1 RES1               0.0000
     18 ****       -13.0071  13.5688  66.5036 LP             1 RES1               0.0000
@<TRIPOS>BOND
    1    1    2 1     
    2    2    3 ar    
    3    3    4 ar    
    4    4    5 ar    
    5    5    6 1     
    6    6    7 1     
    7    6    8 2     
    8    6    9 2     
    9    5   10 ar    
   10   10   11 ar    
   11   11    2 ar    
   12    3   12 1     
   13    4   13 1     
   14    7   14 1     
   15    7   15 1     
   16   10   16 1     
   17   11   17 1     
   18    7   18 1     
@<TRIPOS>SUBSTRUCTURE
      1 RES1           1
@<TRIPOS>SET
LONE_PAIRS      STATIC     ATOMS    <user>   **** ""
3 18 8 9
DONOR_HYDROGENS      STATIC     ATOMS    <user>   **** ""
2 14 15
ATOM$BLUE        STATIC     ATOMS    COLORGROUP SYSTEM
3 18 8 9
ATOM$RED        STATIC     ATOMS    COLORGROUP SYSTEM
2 14 15
@<TRIPOS>COMMENT
> <Gold.Version>
2022.1.0

> <Gold.Id.Protein>
6LU7|6LU7_protein|mol2

> <Gold.Protein.RotatedTorsions>
[ 3973 1471 1470 1467 ] final  175.98 input   60.00 | X-H torsion
[ 3372  414  413  411 ] final  -92.60 input   60.00 | X-H torsion
[ 4268 1114 1113 1110 ] final  121.22 input   59.99 | X-H torsion
[ 4409  924  923  921 ] final  -47.04 input   59.99 | X-H torsion
[ 4183 1244 1243 1241 ] final -142.73 input   59.99 | X-H torsion
[ 3800  178  177  174 ] final -134.65 input   60.00 | X-H torsion
[ 3793  171  170  167 ] final   77.14 input   60.00 | X-H torsion
[ 3576  185  184  181 ] final    9.23 input   60.00 | X-H torsion
[ 3523  346  345  342 ] final  158.19 input   60.01 | X-H torsion
[ 3515  339  338  335 ] final   54.59 input   60.00 | X-H torsion
[ 3663  154  153  150 ] final  130.33 input   60.00 | X-H torsion
[ 4280 1130 1129 1126 ] final   -4.45 input   60.00 | X-H torsion

> <Gold.Protein.ActiveResidues>
 VAL20   THR21   CYS22   GLY23   THR24   THR25   THR26   LEU27   ASN28   PRO39  
 ARG40   HIS41   VAL42   CYS44   THR45   SER46   ASP48   MET49   LEU50   PRO52  
 TYR54   TYR118  ASN119  ILE136  GLY138  SER139  PHE140  LEU141  ASN142  GLY143 
 SER144  CYS145  GLY146  SER147  TYR161  HIS163  HIS164  MET165  GLU166  LEU167 
 PRO168  THR169  GLY170  VAL171  HIS172  ALA173  PHE181  PHE185  VAL186  ASP187 
 ARG188  GLN189  THR190  ALA191  GLN192  ALA193 

> <Gold.Protein.RotatedAtoms>
  -15.4695   17.6927   75.1364 H   0  0  0  0  0  0  0  0  0  0  0  0  # atno 3372 bound_to 414 
   -3.6040   21.6595   74.1856 H   0  0  0  0  0  0  0  0  0  0  0  0  # atno 3515 bound_to 339 
   -1.7878   17.6068   72.9349 H   0  0  0  0  0  0  0  0  0  0  0  0  # atno 3523 bound_to 346 
   -8.8149   25.8763   63.9578 H   0  0  0  0  0  0  0  0  0  0  0  0  # atno 3576 bound_to 185 
   -7.5140   29.9845   64.9626 H   0  0  0  0  0  0  0  0  0  0  0  0  # atno 3663 bound_to 154 
   -3.1303   23.5701   71.7265 H   0  0  0  0  0  0  0  0  0  0  0  0  # atno 3793 bound_to 171 
   -7.4779   22.4345   71.9695 H   0  0  0  0  0  0  0  0  0  0  0  0  # atno 3800 bound_to 178 
  -15.6493    8.1819   78.5632 H   0  0  0  0  0  0  0  0  0  0  0  0  # atno 3973 bound_to 1471
  -19.8757   13.8759   63.6298 H   0  0  0  0  0  0  0  0  0  0  0  0  # atno 4183 bound_to 1244
  -14.1285   15.6458   61.0329 H   0  0  0  0  0  0  0  0  0  0  0  0  # atno 4268 bound_to 1114
  -16.1089   20.4007   59.0162 H   0  0  0  0  0  0  0  0  0  0  0  0  # atno 4280 bound_to 1130
  -12.1596   15.4217   56.9444 H   0  0  0  0  0  0  0  0  0  0  0  0  # atno 4409 bound_to 924 
  -15.3829    7.4332   77.1431 LP  0  0  0  0  0  0  0  0  0  0  0  0  # atno 4696 bound_to 1471
  -14.9998    9.0104   77.3223 LP  0  0  0  0  0  0  0  0  0  0  0  0  # atno 4697 bound_to 1471
  -14.6435   17.0148   76.3637 LP  0  0  0  0  0  0  0  0  0  0  0  0  # atno 4731 bound_to 414 
  -13.9776   18.2308   75.5007 LP  0  0  0  0  0  0  0  0  0  0  0  0  # atno 4732 bound_to 414 
  -13.2274   16.4239   62.1422 LP  0  0  0  0  0  0  0  0  0  0  0  0  # atno 4733 bound_to 1114
  -12.5526   15.2753   61.1976 LP  0  0  0  0  0  0  0  0  0  0  0  0  # atno 4734 bound_to 1114
  -11.0316   15.1008   58.0724 LP  0  0  0  0  0  0  0  0  0  0  0  0  # atno 4763 bound_to 924 
  -10.6672   14.9624   56.4867 LP  0  0  0  0  0  0  0  0  0  0  0  0  # atno 4764 bound_to 924 
  -20.6181   12.5445   63.0606 LP  0  0  0  0  0  0  0  0  0  0  0  0  # atno 4771 bound_to 1244
  -20.8769   13.0333   64.5970 LP  0  0  0  0  0  0  0  0  0  0  0  0  # atno 4772 bound_to 1244
   -7.0420   23.9346   72.4251 LP  0  0  0  0  0  0  0  0  0  0  0  0  # atno 4775 bound_to 178 
   -6.0915   23.0778   71.4108 LP  0  0  0  0  0  0  0  0  0  0  0  0  # atno 4776 bound_to 178 
   -3.0857   24.9576   72.5755 LP  0  0  0  0  0  0  0  0  0  0  0  0  # atno 4779 bound_to 171 
   -1.7421   24.0404   72.4333 LP  0  0  0  0  0  0  0  0  0  0  0  0  # atno 4780 bound_to 171 
   -7.6104   25.1917   63.1042 LP  0  0  0  0  0  0  0  0  0  0  0  0  # atno 4783 bound_to 185 
   -7.5201   26.7651   63.5319 LP  0  0  0  0  0  0  0  0  0  0  0  0  # atno 4784 bound_to 185 
   -3.2023   18.3935   73.1041 LP  0  0  0  0  0  0  0  0  0  0  0  0  # atno 4785 bound_to 346 
   -3.1803   16.8566   72.5524 LP  0  0  0  0  0  0  0  0  0  0  0  0  # atno 4786 bound_to 346 
   -3.1542   20.4569   75.1853 LP  0  0  0  0  0  0  0  0  0  0  0  0  # atno 4787 bound_to 339 
   -2.7069   21.9954   75.5010 LP  0  0  0  0  0  0  0  0  0  0  0  0  # atno 4788 bound_to 339 
   -8.5151   28.7551   65.3291 LP  0  0  0  0  0  0  0  0  0  0  0  0  # atno 4797 bound_to 154 
   -6.8979   28.5527   65.4302 LP  0  0  0  0  0  0  0  0  0  0  0  0  # atno 4798 bound_to 154 

> <Gold.Score>
     Score     S(PLP)   S(hbond)     S(cho)   S(metal)  DE(clash)   DE(tors)     intcor
     33.06     -30.07       1.00       0.00       0.00       0.00       1.05       2.11

> <Gold.PLP.Fitness>
33.0648

> <Gold.PLP.PLP>
-30.0656

> <Gold.PLP.part.hbond>
-1.0000

> <Gold.PLP.part.metal>
0.0000

> <Gold.PLP.part.buried>
-3.3730

> <Gold.PLP.part.nonpolar>
-26.2056

> <Gold.PLP.part.repulsive>
0.0702

> <Gold.PLP.ligand.clash>
0.0000

> <Gold.PLP.ligand.torsion>
1.0539

> <Gold.PLP.Chemscore.Hbond>
1.0000

> <Gold.PLP.Chemscore.CHOScore>
0.0000

> <Gold.PLP.Chemscore.Metal>
0.0000

> <Gold.Chemscore.Hbonds>
donor molecule, donor type, donor heavy atom, donor atom, acceptor molecule, acceptor atom, score
      L1  H     7    15       P1  1266  1.00

> <Gold.PLP.Chemscore.Internal.Correction>
2.1069

