#       Name:                /Users/williammccorkindale/ml_physics/smi2wyck/notebooks/docking/mpro_fragments/prepared_Mpro-x0991.mol2
#       Creating user name   williammccorkindale
#       Creation time:       Tue Jun  7 14:55:39 2022


#       File generated by GOLD software.
#

@<TRIPOS>MOLECULE
/Users/williammccorkindale/ml_physics/smi2wyck/notebooks/docking/mpro_fragments/prepared_Mpro-x0991.mol2
    14    13     1
SMALL
NO_CHARGES


@<TRIPOS>ATOM
      1 C1           1.6926  -0.2485   0.4048 C.3            1 RES1               0.0000
      2 C2           0.5110  -0.5335  -0.4897 C.3            1 RES1               0.0000
      3 C3          -0.6556   0.2224  -0.0043 C.2            1 RES1               0.0000
      4 N4          -0.5211   0.9610   1.0289 N.2            1 RES1               0.0000
      5 N5          -1.9380   0.1578  -0.6521 N.pl3          1 RES1               0.0000
      6 H6           1.6691  -0.9563   1.2592 H              1 RES1               0.0000
      7 H7           1.6281   0.7872   0.8366 H              1 RES1               0.0000
      8 H8           2.6620  -0.2733  -0.1399 H              1 RES1               0.0000
      9 H9           0.7111  -0.2763  -1.5504 H              1 RES1               0.0000
     10 H10          0.2443  -1.6244  -0.3918 H              1 RES1               0.0000
     11 H11          0.3581   1.0639   1.5502 H              1 RES1               0.0000
     12 H12         -1.9995  -0.4538  -1.4859 H              1 RES1               0.0000
     13 H13         -2.7225   0.7192  -0.2556 H              1 RES1               0.0000
     14 ****        -1.3199   1.4699   1.3498 LP             1 RES1               0.0000
@<TRIPOS>BOND
    1    1    2 1     
    2    2    3 1     
    3    3    4 2     
    4    3    5 1     
    5    1    6 1     
    6    1    7 1     
    7    1    8 1     
    8    2    9 1     
    9    2   10 1     
   10    4   11 1     
   11    5   12 1     
   12    5   13 1     
   13    4   14 1     
@<TRIPOS>SUBSTRUCTURE
      1 RES1           1
@<TRIPOS>SET
LONE_PAIRS      STATIC     ATOMS    <user>   **** ""
1 14
DONOR_HYDROGENS      STATIC     ATOMS    <user>   **** ""
3 11 12 13
ATOM$BLUE        STATIC     ATOMS    COLORGROUP SYSTEM
1 14
ATOM$RED        STATIC     ATOMS    COLORGROUP SYSTEM
3 11 12 13
