unknown|prepared_Mpro-x0072|sdf|1|dock1
  -GOLD-   5 72214353D 1   1.00000     0.00000

 26 26  0  0  0  0  0  0  0  0  1 V2000
   -9.9362   10.0574   69.0270 C   0  0  0  0  0  0  0  0  0  0  0  0
  -10.8060   11.3419   68.1991 S   0  0  0  0  0  0  0  0  0  0  0  0
  -10.3929   11.3491   66.7569 O   0  0  0  0  0  0  0  0  0  0  0  0
  -12.2802   11.1026   68.2638 O   0  0  0  0  0  0  0  0  0  0  0  0
  -10.4224   12.8417   68.9721 N   0  0  0  0  0  0  0  0  0  0  0  0
  -11.6558   13.3871   69.5014 C   0  0  0  0  0  0  0  0  0  0  0  0
  -11.5376   14.8535   69.8261 C   0  0  0  0  0  0  0  0  0  0  0  0
  -12.2279   15.2265   71.0714 C   0  0  0  0  0  0  0  0  0  0  0  0
  -11.6350   15.8922   72.1159 C   0  0  0  0  0  0  0  0  0  0  0  0
  -12.3243   16.2150   73.2527 C   0  0  0  0  0  0  0  0  0  0  0  0
  -13.6523   15.8872   73.4066 C   0  0  0  0  0  0  0  0  0  0  0  0
  -14.2659   15.2181   72.3679 C   0  0  0  0  0  0  0  0  0  0  0  0
  -13.5588   14.8920   71.2126 C   0  0  0  0  0  0  0  0  0  0  0  0
  -10.6524    9.3539   69.4819 H   0  0  0  0  0  0  0  0  0  0  0  0
   -9.2772    9.4699   68.3617 H   0  0  0  0  0  0  0  0  0  0  0  0
   -9.2998   10.4389   69.8511 H   0  0  0  0  0  0  0  0  0  0  0  0
   -9.6778   12.7523   69.6672 H   0  0  0  0  0  0  0  0  0  0  0  0
  -11.8631   12.8523   70.4518 H   0  0  0  0  0  0  0  0  0  0  0  0
  -12.5018   13.2496   68.8233 H   0  0  0  0  0  0  0  0  0  0  0  0
  -10.4591   15.0852   69.9429 H   0  0  0  0  0  0  0  0  0  0  0  0
  -11.8765   15.4871   68.9580 H   0  0  0  0  0  0  0  0  0  0  0  0
  -10.6087   16.1652   72.0391 H   0  0  0  0  0  0  0  0  0  0  0  0
  -11.8367   16.7384   74.0602 H   0  0  0  0  0  0  0  0  0  0  0  0
  -14.2353   16.1145   74.2699 H   0  0  0  0  0  0  0  0  0  0  0  0
  -15.3224   14.9436   72.4611 H   0  0  0  0  0  0  0  0  0  0  0  0
  -14.0628   14.3716   70.4221 H   0  0  0  0  0  0  0  0  0  0  0  0
  1  2  1  0  0  0  0
  2  3  2  0  0  0  0
  2  4  2  0  0  0  0
  2  5  1  0  0  0  0
  5  6  1  0  0  0  0
  6  7  1  0  0  0  0
  7  8  1  0  0  0  0
  8  9  2  0  0  0  0
  9 10  1  0  0  0  0
 10 11  2  0  0  0  0
 11 12  1  0  0  0  0
 12 13  2  0  0  0  0
  8 13  1  0  0  0  0
  1 14  1  0  0  0  0
  1 15  1  0  0  0  0
  1 16  1  0  0  0  0
  5 17  1  0  0  0  0
  6 18  1  0  0  0  0
  6 19  1  0  0  0  0
  7 20  1  0  0  0  0
  7 21  1  0  0  0  0
  9 22  1  0  0  0  0
 10 23  1  0  0  0  0
 11 24  1  0  0  0  0
 12 25  1  0  0  0  0
 13 26  1  0  0  0  0
M  END
> <Gold.Version>
2022.1.0

> <Gold.Id.Protein>
6LU7|6LU7_protein|mol2

> <Gold.PLP.Fitness>
42.3001

> <Gold.PLP.PLP>
-37.0276

> <Gold.PLP.part.hbond>
-2.0000

> <Gold.PLP.part.metal>
0.0000

> <Gold.PLP.part.buried>
-3.4995

> <Gold.PLP.part.nonpolar>
-32.0636

> <Gold.PLP.part.repulsive>
0.1129

> <Gold.PLP.ligand.clash>
0.0000

> <Gold.PLP.ligand.torsion>
0.3940

> <Gold.PLP.Chemscore.Hbond>
2.0000

> <Gold.PLP.Chemscore.CHOScore>
0.0000

> <Gold.PLP.Chemscore.Metal>
0.0000

> <Gold.Chemscore.Hbonds>
donor molecule, donor type, donor heavy atom, donor atom, acceptor molecule, acceptor atom, score
      L1  H     5    17       P1  1464  1.00
      P1  H  1281  4132       L1     4  1.00

> <Gold.PLP.Chemscore.Internal.Correction>
0.0605

> <Gold.Protein.RotatedTorsions>
[ 3973 1471 1470 1467 ] final -147.71 input   60.00 | X-H torsion
[ 3372  414  413  411 ] final   13.30 input   60.00 | X-H torsion
[ 4268 1114 1113 1110 ] final  -77.98 input   59.99 | X-H torsion
[ 4409  924  923  921 ] final -164.08 input   59.99 | X-H torsion
[ 4183 1244 1243 1241 ] final  108.82 input   59.99 | X-H torsion
[ 3800  178  177  174 ] final  130.28 input   60.00 | X-H torsion
[ 3793  171  170  167 ] final -108.78 input   60.00 | X-H torsion
[ 3576  185  184  181 ] final   78.12 input   60.00 | X-H torsion
[ 3523  346  345  342 ] final  112.44 input   60.01 | X-H torsion
[ 3515  339  338  335 ] final   38.93 input   60.00 | X-H torsion
[ 3663  154  153  150 ] final -134.94 input   60.00 | X-H torsion
[ 4280 1130 1129 1126 ] final  133.55 input   60.00 | X-H torsion

> <Gold.Protein.ActiveResidues>
 VAL20   THR21   CYS22   GLY23   THR24   THR25   THR26   LEU27   ASN28   PRO39  
 ARG40   HIS41   VAL42   CYS44   THR45   SER46   ASP48   MET49   LEU50   PRO52  
 TYR54   TYR118  ASN119  ILE136  GLY138  SER139  PHE140  LEU141  ASN142  GLY143 
 SER144  CYS145  GLY146  SER147  TYR161  HIS163  HIS164  MET165  GLU166  LEU167 
 PRO168  THR169  GLY170  VAL171  HIS172  ALA173  PHE181  PHE185  VAL186  ASP187 
 ARG188  GLN189  THR190  ALA191  GLN192  ALA193 

> <Gold.Protein.RotatedAtoms>
  -14.1212   18.3052   75.3361 H   0  0  0  0  0  0  0  0  0  0  0  0  # atno 3372 bound_to 414 
   -3.6567   21.4107   74.1654 H   0  0  0  0  0  0  0  0  0  0  0  0  # atno 3515 bound_to 339 
   -2.0789   18.2414   73.1404 H   0  0  0  0  0  0  0  0  0  0  0  0  # atno 3523 bound_to 346 
   -8.2344   26.7609   63.9151 H   0  0  0  0  0  0  0  0  0  0  0  0  # atno 3576 bound_to 185 
   -6.7286   28.9114   65.3221 H   0  0  0  0  0  0  0  0  0  0  0  0  # atno 3663 bound_to 154 
   -2.0997   24.7496   72.7475 H   0  0  0  0  0  0  0  0  0  0  0  0  # atno 3793 bound_to 171 
   -7.3619   23.7003   72.5102 H   0  0  0  0  0  0  0  0  0  0  0  0  # atno 3800 bound_to 178 
  -15.4599    8.7223   78.4523 H   0  0  0  0  0  0  0  0  0  0  0  0  # atno 3973 bound_to 1471
  -20.4998   12.6595   62.9678 H   0  0  0  0  0  0  0  0  0  0  0  0  # atno 4183 bound_to 1244
  -12.3990   15.6949   61.6765 H   0  0  0  0  0  0  0  0  0  0  0  0  # atno 4268 bound_to 1114
  -15.5858   18.7424   59.1946 H   0  0  0  0  0  0  0  0  0  0  0  0  # atno 4280 bound_to 1130
  -11.0776   15.1171   58.0783 H   0  0  0  0  0  0  0  0  0  0  0  0  # atno 4409 bound_to 924 
  -15.5991    7.3006   77.6730 LP  0  0  0  0  0  0  0  0  0  0  0  0  # atno 4696 bound_to 1471
  -14.9744    8.5987   76.9041 LP  0  0  0  0  0  0  0  0  0  0  0  0  # atno 4697 bound_to 1471
  -15.5443   17.5190   75.2687 LP  0  0  0  0  0  0  0  0  0  0  0  0  # atno 4731 bound_to 414 
  -14.4346   17.1097   76.3946 LP  0  0  0  0  0  0  0  0  0  0  0  0  # atno 4732 bound_to 414 
  -13.6787   15.2434   60.7786 LP  0  0  0  0  0  0  0  0  0  0  0  0  # atno 4733 bound_to 1114
  -13.8432   16.4064   61.9130 LP  0  0  0  0  0  0  0  0  0  0  0  0  # atno 4734 bound_to 1114
  -10.6341   14.9531   56.5213 LP  0  0  0  0  0  0  0  0  0  0  0  0  # atno 4763 bound_to 924 
  -12.1544   15.4169   56.8957 LP  0  0  0  0  0  0  0  0  0  0  0  0  # atno 4764 bound_to 924 
  -20.9549   12.8813   64.5143 LP  0  0  0  0  0  0  0  0  0  0  0  0  # atno 4771 bound_to 1244
  -19.9116   13.9215   63.8099 LP  0  0  0  0  0  0  0  0  0  0  0  0  # atno 4772 bound_to 1244
   -6.0573   23.4507   71.5700 LP  0  0  0  0  0  0  0  0  0  0  0  0  # atno 4775 bound_to 178 
   -7.1929   22.2870   71.7214 LP  0  0  0  0  0  0  0  0  0  0  0  0  # atno 4776 bound_to 178 
   -2.3077   23.3932   71.8730 LP  0  0  0  0  0  0  0  0  0  0  0  0  # atno 4779 bound_to 171 
   -3.5582   24.4168   72.1073 LP  0  0  0  0  0  0  0  0  0  0  0  0  # atno 4780 bound_to 171 
   -8.5506   25.1946   63.6077 LP  0  0  0  0  0  0  0  0  0  0  0  0  # atno 4783 bound_to 185 
   -7.1645   25.8713   63.0714 LP  0  0  0  0  0  0  0  0  0  0  0  0  # atno 4784 bound_to 185 
   -3.6355   17.8490   72.8739 LP  0  0  0  0  0  0  0  0  0  0  0  0  # atno 4785 bound_to 346 
   -2.4539   16.7620   72.5757 LP  0  0  0  0  0  0  0  0  0  0  0  0  # atno 4786 bound_to 346 
   -3.0142   20.5430   75.3828 LP  0  0  0  0  0  0  0  0  0  0  0  0  # atno 4787 bound_to 339 
   -2.7938   22.1599   75.3239 LP  0  0  0  0  0  0  0  0  0  0  0  0  # atno 4788 bound_to 339 
   -7.9239   29.9547   64.9605 LP  0  0  0  0  0  0  0  0  0  0  0  0  # atno 4797 bound_to 154 
   -8.2800   28.4338   65.4368 LP  0  0  0  0  0  0  0  0  0  0  0  0  # atno 4798 bound_to 154 

$$$$
