#       Name:                unknown
#       Creating user name   williammccorkindale
#       Creation time:       Tue Jun  7 14:55:35 2022


#       File generated by GOLD software.
#

@<TRIPOS>MOLECULE
unknown|prepared_Mpro-x0426|mol2|1|dock2
    34    35     1
SMALL
NO_CHARGES


@<TRIPOS>ATOM
      1 F1          -9.8174   9.9207  65.7985 F              1 RES1               0.0000
      2 C2         -10.7246  10.8846  65.5660 C.ar           1 RES1               0.0000
      3 C3         -10.9572  11.1446  64.2059 C.ar           1 RES1               0.0000
      4 C4         -11.8523  12.0977  63.7804 C.ar           1 RES1               0.0000
      5 C5         -12.5221  12.7981  64.7551 C.ar           1 RES1               0.0000
      6 C6         -12.2952  12.5445  66.0876 C.ar           1 RES1               0.0000
      7 C7         -11.3828  11.5729  66.5190 C.ar           1 RES1               0.0000
      8 C8         -11.1864  11.3506  67.9389 C.2            1 RES1               0.0000
      9 O9         -10.1667  11.8772  68.5235 O.2            1 RES1               0.0000
     10 N10        -12.0093  10.5974  68.7935 N.am           1 RES1               0.0000
     11 C11        -11.6920  10.4525  70.2224 C.3            1 RES1               0.0000
     12 C12        -12.7811  10.9237  71.1141 C.3            1 RES1               0.0000
     13 C13        -12.8993  12.3732  71.2809 C.ar           1 RES1               0.0000
     14 C14        -13.5987  12.9027  72.3209 C.ar           1 RES1               0.0000
     15 C15        -13.7209  14.2806  72.5114 C.ar           1 RES1               0.0000
     16 N16        -13.1287  15.1100  71.6387 N.ar           1 RES1               0.0000
     17 C17        -12.4312  14.6244  70.6011 C.ar           1 RES1               0.0000
     18 C18        -12.3012  13.2726  70.3996 C.ar           1 RES1               0.0000
     19 H19        -10.4344  10.5981  63.4247 H              1 RES1               0.0000
     20 H20        -12.0466  12.3138  62.7460 H              1 RES1               0.0000
     21 H21        -13.2438  13.5659  64.4827 H              1 RES1               0.0000
     22 H22        -12.8517  13.1272  66.8152 H              1 RES1               0.0000
     23 H23        -12.8517  10.1370  68.4179 H              1 RES1               0.0000
     24 H24        -10.7067  10.8528  70.4554 H              1 RES1               0.0000
     25 H25        -11.6108   9.3343  70.3674 H              1 RES1               0.0000
     26 H26        -13.7436  10.5689  70.6648 H              1 RES1               0.0000
     27 H27        -12.6405  10.4783  72.1362 H              1 RES1               0.0000
     28 H28        -14.1029  12.2977  73.0496 H              1 RES1               0.0000
     29 H29        -14.2840  14.6655  73.3489 H              1 RES1               0.0000
     30 H30        -11.9588  15.3052  69.9048 H              1 RES1               0.0000
     31 H31        -11.7328  12.8625  69.5540 H              1 RES1               0.0000
     32 ****        -9.5210  12.4321  67.9989 LP             1 RES1               0.0000
     33 ****       -10.0206  11.7312  69.5019 LP             1 RES1               0.0000
     34 ****       -13.2081  16.0990  71.7631 LP             1 RES1               0.0000
@<TRIPOS>BOND
    1    1    2 1     
    2    2    3 ar    
    3    3    4 ar    
    4    4    5 ar    
    5    5    6 ar    
    6    6    7 ar    
    7    7    8 1     
    8    8    9 2     
    9    8   10 am    
   10   10   11 1     
   11   11   12 1     
   12   12   13 1     
   13   13   14 ar    
   14   14   15 ar    
   15   15   16 ar    
   16   16   17 ar    
   17   17   18 ar    
   18    2    7 ar    
   19   13   18 ar    
   20    3   19 1     
   21    4   20 1     
   22    5   21 1     
   23    6   22 1     
   24   10   23 1     
   25   11   24 1     
   26   11   25 1     
   27   12   26 1     
   28   12   27 1     
   29   14   28 1     
   30   15   29 1     
   31   17   30 1     
   32   18   31 1     
   33    9   32 1     
   34    9   33 1     
   35   16   34 1     
@<TRIPOS>SUBSTRUCTURE
      1 RES1           1
@<TRIPOS>SET
LONE_PAIRS      STATIC     ATOMS    <user>   **** ""
3 32 33 34
DONOR_HYDROGENS      STATIC     ATOMS    <user>   **** ""
1 23
ATOM$BLUE        STATIC     ATOMS    COLORGROUP SYSTEM
3 32 33 34
ATOM$RED        STATIC     ATOMS    COLORGROUP SYSTEM
1 23
@<TRIPOS>COMMENT
> <Gold.Version>
2022.1.0

> <Gold.Id.Protein>
6LU7|6LU7_protein|mol2

> <Gold.Protein.RotatedTorsions>
[ 3973 1471 1470 1467 ] final  -21.45 input   60.00 | X-H torsion
[ 3372  414  413  411 ] final -111.91 input   60.00 | X-H torsion
[ 4268 1114 1113 1110 ] final   23.81 input   59.99 | X-H torsion
[ 4409  924  923  921 ] final  -80.58 input   59.99 | X-H torsion
[ 4183 1244 1243 1241 ] final -136.58 input   59.99 | X-H torsion
[ 3800  178  177  174 ] final -156.90 input   60.00 | X-H torsion
[ 3793  171  170  167 ] final   95.37 input   60.00 | X-H torsion
[ 3576  185  184  181 ] final  107.11 input   60.00 | X-H torsion
[ 3523  346  345  342 ] final  -88.67 input   60.01 | X-H torsion
[ 3515  339  338  335 ] final  -34.60 input   60.00 | X-H torsion
[ 3663  154  153  150 ] final   74.74 input   60.00 | X-H torsion
[ 4280 1130 1129 1126 ] final   -5.50 input   60.00 | X-H torsion

> <Gold.Protein.ActiveResidues>
 VAL20   THR21   CYS22   GLY23   THR24   THR25   THR26   LEU27   ASN28   PRO39  
 ARG40   HIS41   VAL42   CYS44   THR45   SER46   ASP48   MET49   LEU50   PRO52  
 TYR54   TYR118  ASN119  ILE136  GLY138  SER139  PHE140  LEU141  ASN142  GLY143 
 SER144  CYS145  GLY146  SER147  TYR161  HIS163  HIS164  MET165  GLU166  LEU167 
 PRO168  THR169  GLY170  VAL171  HIS172  ALA173  PHE181  PHE185  VAL186  ASP187 
 ARG188  GLN189  THR190  ALA191  GLN192  ALA193 

> <Gold.Protein.RotatedAtoms>
  -15.5524   17.4595   75.3299 H   0  0  0  0  0  0  0  0  0  0  0  0  # atno 3372 bound_to 414 
   -3.4201   20.4936   74.7645 H   0  0  0  0  0  0  0  0  0  0  0  0  # atno 3515 bound_to 339 
   -3.0768   16.8128   72.5473 H   0  0  0  0  0  0  0  0  0  0  0  0  # atno 3523 bound_to 346 
   -7.8177   26.8465   63.7183 H   0  0  0  0  0  0  0  0  0  0  0  0  # atno 3576 bound_to 185 
   -8.3346   29.6956   65.0361 H   0  0  0  0  0  0  0  0  0  0  0  0  # atno 3663 bound_to 154 
   -2.8654   23.4367   71.7269 H   0  0  0  0  0  0  0  0  0  0  0  0  # atno 3793 bound_to 171 
   -7.6392   22.6736   72.1871 H   0  0  0  0  0  0  0  0  0  0  0  0  # atno 3800 bound_to 178 
  -14.9856    8.5040   76.8658 H   0  0  0  0  0  0  0  0  0  0  0  0  # atno 3973 bound_to 1471
  -19.8950   13.9018   63.7250 H   0  0  0  0  0  0  0  0  0  0  0  0  # atno 4183 bound_to 1244
  -13.5818   16.4530   62.0470 H   0  0  0  0  0  0  0  0  0  0  0  0  # atno 4268 bound_to 1114
  -16.1169   20.4029   59.0011 H   0  0  0  0  0  0  0  0  0  0  0  0  # atno 4280 bound_to 1130
  -12.1299   15.4226   57.4838 H   0  0  0  0  0  0  0  0  0  0  0  0  # atno 4409 bound_to 924 
  -15.4228    8.8051   78.4041 LP  0  0  0  0  0  0  0  0  0  0  0  0  # atno 4696 bound_to 1471
  -15.6284    7.3141   77.7708 LP  0  0  0  0  0  0  0  0  0  0  0  0  # atno 4697 bound_to 1471
  -14.3608   17.1534   76.3950 LP  0  0  0  0  0  0  0  0  0  0  0  0  # atno 4731 bound_to 414 
  -14.1768   18.3270   75.2746 LP  0  0  0  0  0  0  0  0  0  0  0  0  # atno 4732 bound_to 414 
  -12.4091   15.4872   61.4638 LP  0  0  0  0  0  0  0  0  0  0  0  0  # atno 4733 bound_to 1114
  -13.9216   15.3990   60.8547 LP  0  0  0  0  0  0  0  0  0  0  0  0  # atno 4734 bound_to 1114
  -10.5961   14.9645   57.7762 LP  0  0  0  0  0  0  0  0  0  0  0  0  # atno 4763 bound_to 924 
  -11.1326   15.0978   56.2397 LP  0  0  0  0  0  0  0  0  0  0  0  0  # atno 4764 bound_to 924 
  -20.5548   12.6004   63.0047 LP  0  0  0  0  0  0  0  0  0  0  0  0  # atno 4771 bound_to 1244
  -20.9208   12.9513   64.5570 LP  0  0  0  0  0  0  0  0  0  0  0  0  # atno 4772 bound_to 1244
   -6.7255   24.0179   72.2661 LP  0  0  0  0  0  0  0  0  0  0  0  0  # atno 4775 bound_to 178 
   -6.2456   22.7536   71.3507 LP  0  0  0  0  0  0  0  0  0  0  0  0  # atno 4776 bound_to 178 
   -3.3155   24.8330   72.4308 LP  0  0  0  0  0  0  0  0  0  0  0  0  # atno 4779 bound_to 171 
   -1.7791   24.2994   72.5775 LP  0  0  0  0  0  0  0  0  0  0  0  0  # atno 4780 bound_to 171 
   -8.7798   25.5394   63.8345 LP  0  0  0  0  0  0  0  0  0  0  0  0  # atno 4783 bound_to 185 
   -7.3550   25.4403   63.0429 LP  0  0  0  0  0  0  0  0  0  0  0  0  # atno 4784 bound_to 185 
   -1.7893   17.7135   72.9707 LP  0  0  0  0  0  0  0  0  0  0  0  0  # atno 4785 bound_to 346 
   -3.2952   18.3362   73.0761 LP  0  0  0  0  0  0  0  0  0  0  0  0  # atno 4786 bound_to 346 
   -2.6368   21.5512   75.7216 LP  0  0  0  0  0  0  0  0  0  0  0  0  # atno 4787 bound_to 339 
   -3.4095   22.0752   74.3818 LP  0  0  0  0  0  0  0  0  0  0  0  0  # atno 4788 bound_to 339 
   -7.8425   28.2202   65.5147 LP  0  0  0  0  0  0  0  0  0  0  0  0  # atno 4797 bound_to 154 
   -6.7441   29.3785   65.1706 LP  0  0  0  0  0  0  0  0  0  0  0  0  # atno 4798 bound_to 154 

> <Gold.Score>
     Score     S(PLP)   S(hbond)     S(cho)   S(metal)  DE(clash)   DE(tors)     intcor
     49.99     -51.54       0.64       0.00       0.00       0.00       1.77       0.07

> <Gold.PLP.Fitness>
49.9935

> <Gold.PLP.PLP>
-51.5402

> <Gold.PLP.part.hbond>
-0.9571

> <Gold.PLP.part.metal>
0.0000

> <Gold.PLP.part.buried>
-7.9586

> <Gold.PLP.part.nonpolar>
-44.1606

> <Gold.PLP.part.repulsive>
0.2795

> <Gold.PLP.ligand.clash>
0.0000

> <Gold.PLP.ligand.torsion>
1.7680

> <Gold.PLP.Chemscore.Hbond>
0.6406

> <Gold.PLP.Chemscore.CHOScore>
0.0000

> <Gold.PLP.Chemscore.Metal>
0.0000

> <Gold.Chemscore.Hbonds>
donor molecule, donor type, donor heavy atom, donor atom, acceptor molecule, acceptor atom, score
      L1  H    10    23       P1  1284  0.64

> <Gold.PLP.Chemscore.Internal.Correction>
0.0673

