unknown|prepared_Mpro-x0397|sdf|1|dock2
  -GOLD-   5 72214353D 1   1.00000     0.00000

 30 31  0  0  0  0  0  0  0  0  1 V2000
  -12.0092   11.5300   69.1832 C   0  0  0  0  0  0  0  0  0  0  0  0
  -11.7578   12.9601   69.2485 N   0  0  0  0  0  0  0  0  0  0  0  0
  -10.9484   13.5845   68.1986 C   0  0  0  0  0  0  0  0  0  0  0  0
  -11.6309   13.4596   66.8771 C   0  0  0  0  0  0  0  0  0  0  0  0
  -11.5377   12.4335   65.9794 C   0  0  0  0  0  0  0  0  0  0  0  0
  -12.3478   12.7673   64.9092 C   0  0  0  0  0  0  0  0  0  0  0  0
  -12.6055   12.0019   63.6680 C   0  0  0  0  0  0  0  0  0  0  0  0
  -12.8769   13.9412   65.1983 O   0  0  0  0  0  0  0  0  0  0  0  0
  -12.4647   14.3588   66.3498 N   0  0  0  0  0  0  0  0  0  0  0  0
  -12.2898   13.7310   70.3123 C   0  0  0  0  0  0  0  0  0  0  0  0
  -12.1917   14.9833   70.2556 O   0  0  0  0  0  0  0  0  0  0  0  0
  -12.9108   13.0736   71.3987 N   0  0  0  0  0  0  0  0  0  0  0  0
  -13.4617   13.8009   72.4933 C   0  0  0  0  0  0  0  0  0  0  0  0
  -12.7122   15.0238   72.9628 C   0  0  0  0  0  0  0  0  0  0  0  0
  -14.0494   15.1501   72.3324 C   0  0  0  0  0  0  0  0  0  0  0  0
  -11.8044   11.0871   70.1982 H   0  0  0  0  0  0  0  0  0  0  0  0
  -11.3874   11.0376   68.4150 H   0  0  0  0  0  0  0  0  0  0  0  0
  -13.0846   11.3707   68.9524 H   0  0  0  0  0  0  0  0  0  0  0  0
  -10.8474   14.6662   68.4236 H   0  0  0  0  0  0  0  0  0  0  0  0
   -9.9335   13.1325   68.1724 H   0  0  0  0  0  0  0  0  0  0  0  0
  -10.9516   11.5246   66.0640 H   0  0  0  0  0  0  0  0  0  0  0  0
  -12.5175   12.6945   62.8005 H   0  0  0  0  0  0  0  0  0  0  0  0
  -13.6459   11.6355   63.6654 H   0  0  0  0  0  0  0  0  0  0  0  0
  -11.8969   11.1851   63.5434 H   0  0  0  0  0  0  0  0  0  0  0  0
  -12.9816   12.0159   71.4243 H   0  0  0  0  0  0  0  0  0  0  0  0
  -13.9069   13.1772   73.3060 H   0  0  0  0  0  0  0  0  0  0  0  0
  -12.6096   15.1584   74.0578 H   0  0  0  0  0  0  0  0  0  0  0  0
  -11.7881   15.2518   72.4131 H   0  0  0  0  0  0  0  0  0  0  0  0
  -14.1544   15.6201   71.3274 H   0  0  0  0  0  0  0  0  0  0  0  0
  -14.8675   15.4497   73.0202 H   0  0  0  0  0  0  0  0  0  0  0  0
  1  2  1  0  0  0  0
  2  3  1  0  0  0  0
  3  4  1  0  0  0  0
  4  5  1  0  0  0  0
  5  6  2  0  0  0  0
  6  7  1  0  0  0  0
  6  8  1  0  0  0  0
  8  9  1  0  0  0  0
  2 10  1  0  0  0  0
 10 11  2  0  0  0  0
 10 12  1  0  0  0  0
 12 13  1  0  0  0  0
 13 14  1  0  0  0  0
 14 15  1  0  0  0  0
  4  9  2  0  0  0  0
 15 13  1  0  0  0  0
  1 16  1  0  0  0  0
  1 17  1  0  0  0  0
  1 18  1  0  0  0  0
  3 19  1  0  0  0  0
  3 20  1  0  0  0  0
  5 21  1  0  0  0  0
  7 22  1  0  0  0  0
  7 23  1  0  0  0  0
  7 24  1  0  0  0  0
 12 25  1  0  0  0  0
 13 26  1  0  0  0  0
 14 27  1  0  0  0  0
 14 28  1  0  0  0  0
 15 29  1  0  0  0  0
 15 30  1  0  0  0  0
M  END
> <Gold.Version>
2022.1.0

> <Gold.Id.Protein>
6LU7|6LU7_protein|mol2

> <Gold.PLP.Fitness>
41.3010

> <Gold.PLP.PLP>
-42.7298

> <Gold.PLP.part.hbond>
0.0000

> <Gold.PLP.part.metal>
0.0000

> <Gold.PLP.part.buried>
-8.5172

> <Gold.PLP.part.nonpolar>
-35.1613

> <Gold.PLP.part.repulsive>
0.5198

> <Gold.PLP.ligand.clash>
0.0000

> <Gold.PLP.ligand.torsion>
0.7576

> <Gold.PLP.Chemscore.Hbond>
0.0000

> <Gold.PLP.Chemscore.CHOScore>
0.0000

> <Gold.PLP.Chemscore.Metal>
0.0000

> <Gold.PLP.Chemscore.Internal.Correction>
0.0864

> <Gold.Protein.RotatedTorsions>
[ 3973 1471 1470 1467 ] final -131.62 input   60.00 | X-H torsion
[ 3372  414  413  411 ] final  115.06 input   60.00 | X-H torsion
[ 4268 1114 1113 1110 ] final  -73.84 input   59.99 | X-H torsion
[ 4409  924  923  921 ] final  119.37 input   59.99 | X-H torsion
[ 4183 1244 1243 1241 ] final -105.52 input   59.99 | X-H torsion
[ 3800  178  177  174 ] final  -94.13 input   60.00 | X-H torsion
[ 3793  171  170  167 ] final -171.83 input   60.00 | X-H torsion
[ 3576  185  184  181 ] final    8.96 input   60.00 | X-H torsion
[ 3523  346  345  342 ] final -171.43 input   60.01 | X-H torsion
[ 3515  339  338  335 ] final -104.32 input   60.00 | X-H torsion
[ 3663  154  153  150 ] final   49.79 input   60.00 | X-H torsion
[ 4280 1130 1129 1126 ] final   42.61 input   60.00 | X-H torsion

> <Gold.Protein.ActiveResidues>
 VAL20   THR21   CYS22   GLY23   THR24   THR25   THR26   LEU27   ASN28   PRO39  
 ARG40   HIS41   VAL42   CYS44   THR45   SER46   ASP48   MET49   LEU50   PRO52  
 TYR54   TYR118  ASN119  ILE136  GLY138  SER139  PHE140  LEU141  ASN142  GLY143 
 SER144  CYS145  GLY146  SER147  TYR161  HIS163  HIS164  MET165  GLU166  LEU167 
 PRO168  THR169  GLY170  VAL171  HIS172  ALA173  PHE181  PHE185  VAL186  ASP187 
 ARG188  GLN189  THR190  ALA191  GLN192  ALA193 

> <Gold.Protein.RotatedAtoms>
  -14.1943   17.2834   76.3660 H   0  0  0  0  0  0  0  0  0  0  0  0  # atno 3372 bound_to 414 
   -2.8329   20.7855   75.6104 H   0  0  0  0  0  0  0  0  0  0  0  0  # atno 3515 bound_to 339 
   -1.9096   17.1629   72.7654 H   0  0  0  0  0  0  0  0  0  0  0  0  # atno 3523 bound_to 346 
   -8.8151   25.8721   63.9567 H   0  0  0  0  0  0  0  0  0  0  0  0  # atno 3576 bound_to 185 
   -8.5356   29.3598   65.1384 H   0  0  0  0  0  0  0  0  0  0  0  0  # atno 3663 bound_to 154 
   -1.7634   23.9199   72.3518 H   0  0  0  0  0  0  0  0  0  0  0  0  # atno 3793 bound_to 171 
   -6.9787   22.2864   71.5832 H   0  0  0  0  0  0  0  0  0  0  0  0  # atno 3800 bound_to 178 
  -15.3561    8.9084   78.2998 H   0  0  0  0  0  0  0  0  0  0  0  0  # atno 3973 bound_to 1471
  -20.0837   13.8984   64.1893 H   0  0  0  0  0  0  0  0  0  0  0  0  # atno 4183 bound_to 1244
  -12.4081   15.7433   61.7229 H   0  0  0  0  0  0  0  0  0  0  0  0  # atno 4268 bound_to 1114
  -15.7473   20.0194   59.5478 H   0  0  0  0  0  0  0  0  0  0  0  0  # atno 4280 bound_to 1130
  -10.3913   14.8942   57.1703 H   0  0  0  0  0  0  0  0  0  0  0  0  # atno 4409 bound_to 924 
  -15.6674    7.3566   77.9217 LP  0  0  0  0  0  0  0  0  0  0  0  0  # atno 4696 bound_to 1471
  -15.0108    8.3553   76.8089 LP  0  0  0  0  0  0  0  0  0  0  0  0  # atno 4697 bound_to 1471
  -14.3459   18.3490   75.1456 LP  0  0  0  0  0  0  0  0  0  0  0  0  # atno 4731 bound_to 414 
  -15.5594   17.3088   75.4806 LP  0  0  0  0  0  0  0  0  0  0  0  0  # atno 4732 bound_to 414 
  -13.6173   15.2150   60.7706 LP  0  0  0  0  0  0  0  0  0  0  0  0  # atno 4733 bound_to 1114
  -13.8954   16.3860   61.8743 LP  0  0  0  0  0  0  0  0  0  0  0  0  # atno 4734 bound_to 1114
  -11.7415   15.2828   56.3494 LP  0  0  0  0  0  0  0  0  0  0  0  0  # atno 4763 bound_to 924 
  -11.7384   15.3116   57.9821 LP  0  0  0  0  0  0  0  0  0  0  0  0  # atno 4764 bound_to 924 
  -20.2332   12.9638   62.8657 LP  0  0  0  0  0  0  0  0  0  0  0  0  # atno 4771 bound_to 1244
  -21.0522   12.5914   64.2284 LP  0  0  0  0  0  0  0  0  0  0  0  0  # atno 4772 bound_to 1244
   -7.5223   23.5023   72.5182 LP  0  0  0  0  0  0  0  0  0  0  0  0  # atno 4775 bound_to 178 
   -6.1139   23.6593   71.7068 LP  0  0  0  0  0  0  0  0  0  0  0  0  # atno 4776 bound_to 178 
   -3.2493   23.6547   71.7438 LP  0  0  0  0  0  0  0  0  0  0  0  0  # atno 4779 bound_to 171 
   -2.9552   24.9910   72.6352 LP  0  0  0  0  0  0  0  0  0  0  0  0  # atno 4780 bound_to 171 
   -7.6069   25.1941   63.1031 LP  0  0  0  0  0  0  0  0  0  0  0  0  # atno 4783 bound_to 185 
   -7.5233   26.7669   63.5341 LP  0  0  0  0  0  0  0  0  0  0  0  0  # atno 4784 bound_to 185 
   -2.7277   18.5064   73.1822 LP  0  0  0  0  0  0  0  0  0  0  0  0  # atno 4785 bound_to 346 
   -3.5322   17.1908   72.6450 LP  0  0  0  0  0  0  0  0  0  0  0  0  # atno 4786 bound_to 346 
   -2.9700   22.2936   75.0148 LP  0  0  0  0  0  0  0  0  0  0  0  0  # atno 4787 bound_to 339 
   -3.6676   21.0389   74.2367 LP  0  0  0  0  0  0  0  0  0  0  0  0  # atno 4788 bound_to 339 
   -7.4352   28.2242   65.5226 LP  0  0  0  0  0  0  0  0  0  0  0  0  # atno 4797 bound_to 154 
   -6.9490   29.7127   65.0596 LP  0  0  0  0  0  0  0  0  0  0  0  0  # atno 4798 bound_to 154 

$$$$
