unknown|prepared_Mpro-x0072|sdf|1|dock4
  -GOLD-   5 72214353D 1   1.00000     0.00000

 26 26  0  0  0  0  0  0  0  0  1 V2000
  -10.6781   12.1097   66.4529 C   0  0  0  0  0  0  0  0  0  0  0  0
  -10.7505   11.5788   68.1277 S   0  0  0  0  0  0  0  0  0  0  0  0
  -12.0102   10.7886   68.3266 O   0  0  0  0  0  0  0  0  0  0  0  0
   -9.5873   10.6962   68.4482 O   0  0  0  0  0  0  0  0  0  0  0  0
  -10.7187   12.9801   69.1422 N   0  0  0  0  0  0  0  0  0  0  0  0
  -12.0152   13.6190   69.0436 C   0  0  0  0  0  0  0  0  0  0  0  0
  -12.0021   15.0228   69.5904 C   0  0  0  0  0  0  0  0  0  0  0  0
  -12.2871   15.0830   71.0331 C   0  0  0  0  0  0  0  0  0  0  0  0
  -13.2788   14.3669   71.6572 C   0  0  0  0  0  0  0  0  0  0  0  0
  -13.5009   14.4606   73.0039 C   0  0  0  0  0  0  0  0  0  0  0  0
  -12.7378   15.2808   73.8038 C   0  0  0  0  0  0  0  0  0  0  0  0
  -11.7363   16.0085   73.1952 C   0  0  0  0  0  0  0  0  0  0  0  0
  -11.5148   15.9091   71.8233 C   0  0  0  0  0  0  0  0  0  0  0  0
   -9.7565   11.7325   65.9806 H   0  0  0  0  0  0  0  0  0  0  0  0
  -11.5282   11.7572   65.8404 H   0  0  0  0  0  0  0  0  0  0  0  0
  -10.6533   13.2143   66.3588 H   0  0  0  0  0  0  0  0  0  0  0  0
  -10.4327   12.7708   70.1014 H   0  0  0  0  0  0  0  0  0  0  0  0
  -12.7153   13.0259   69.6683 H   0  0  0  0  0  0  0  0  0  0  0  0
  -12.3920   13.6502   68.0180 H   0  0  0  0  0  0  0  0  0  0  0  0
  -10.9892   15.4404   69.4177 H   0  0  0  0  0  0  0  0  0  0  0  0
  -12.6937   15.6908   69.0026 H   0  0  0  0  0  0  0  0  0  0  0  0
  -13.8930   13.7198   71.0761 H   0  0  0  0  0  0  0  0  0  0  0  0
  -14.2863   13.8879   73.4716 H   0  0  0  0  0  0  0  0  0  0  0  0
  -12.8683   15.3908   74.8562 H   0  0  0  0  0  0  0  0  0  0  0  0
  -11.1122   16.6703   73.8058 H   0  0  0  0  0  0  0  0  0  0  0  0
  -10.7288   16.4872   71.3787 H   0  0  0  0  0  0  0  0  0  0  0  0
  1  2  1  0  0  0  0
  2  3  2  0  0  0  0
  2  4  2  0  0  0  0
  2  5  1  0  0  0  0
  5  6  1  0  0  0  0
  6  7  1  0  0  0  0
  7  8  1  0  0  0  0
  8  9  2  0  0  0  0
  9 10  1  0  0  0  0
 10 11  2  0  0  0  0
 11 12  1  0  0  0  0
 12 13  2  0  0  0  0
  8 13  1  0  0  0  0
  1 14  1  0  0  0  0
  1 15  1  0  0  0  0
  1 16  1  0  0  0  0
  5 17  1  0  0  0  0
  6 18  1  0  0  0  0
  6 19  1  0  0  0  0
  7 20  1  0  0  0  0
  7 21  1  0  0  0  0
  9 22  1  0  0  0  0
 10 23  1  0  0  0  0
 11 24  1  0  0  0  0
 12 25  1  0  0  0  0
 13 26  1  0  0  0  0
M  END
> <Gold.Version>
2022.1.0

> <Gold.Id.Protein>
6LU7|6LU7_protein|mol2

> <Gold.PLP.Fitness>
43.1369

> <Gold.PLP.PLP>
-38.4575

> <Gold.PLP.part.hbond>
-2.0000

> <Gold.PLP.part.metal>
0.0000

> <Gold.PLP.part.buried>
-5.3083

> <Gold.PLP.part.nonpolar>
-31.9040

> <Gold.PLP.part.repulsive>
0.1716

> <Gold.PLP.ligand.clash>
0.0000

> <Gold.PLP.ligand.torsion>
0.6906

> <Gold.PLP.Chemscore.Hbond>
2.0000

> <Gold.PLP.Chemscore.CHOScore>
0.0000

> <Gold.PLP.Chemscore.Metal>
0.0000

> <Gold.Chemscore.Hbonds>
donor molecule, donor type, donor heavy atom, donor atom, acceptor molecule, acceptor atom, score
      L1  H     5    17       P1  1464  1.00
      P1  H  1281  4132       L1     3  1.00

> <Gold.PLP.Chemscore.Internal.Correction>
0.0605

> <Gold.Protein.RotatedTorsions>
[ 3973 1471 1470 1467 ] final   46.99 input   60.00 | X-H torsion
[ 3372  414  413  411 ] final  -63.31 input   60.00 | X-H torsion
[ 4268 1114 1113 1110 ] final -105.68 input   59.99 | X-H torsion
[ 4409  924  923  921 ] final  113.33 input   59.99 | X-H torsion
[ 4183 1244 1243 1241 ] final -115.50 input   59.99 | X-H torsion
[ 3800  178  177  174 ] final -112.58 input   60.00 | X-H torsion
[ 3793  171  170  167 ] final -153.23 input   60.00 | X-H torsion
[ 3576  185  184  181 ] final  120.05 input   60.00 | X-H torsion
[ 3523  346  345  342 ] final  -38.44 input   60.01 | X-H torsion
[ 3515  339  338  335 ] final  -91.24 input   60.00 | X-H torsion
[ 3663  154  153  150 ] final  -63.04 input   60.00 | X-H torsion
[ 4280 1130 1129 1126 ] final  -36.04 input   60.00 | X-H torsion

> <Gold.Protein.ActiveResidues>
 VAL20   THR21   CYS22   GLY23   THR24   THR25   THR26   LEU27   ASN28   PRO39  
 ARG40   HIS41   VAL42   CYS44   THR45   SER46   ASP48   MET49   LEU50   PRO52  
 TYR54   TYR118  ASN119  ILE136  GLY138  SER139  PHE140  LEU141  ASN142  GLY143 
 SER144  CYS145  GLY146  SER147  TYR161  HIS163  HIS164  MET165  GLU166  LEU167 
 PRO168  THR169  GLY170  VAL171  HIS172  ALA173  PHE181  PHE185  VAL186  ASP187 
 ARG188  GLN189  THR190  ALA191  GLN192  ALA193 

> <Gold.Protein.RotatedAtoms>
  -15.1843   18.0279   74.9622 H   0  0  0  0  0  0  0  0  0  0  0  0  # atno 3372 bound_to 414 
   -2.9318   20.6379   75.4924 H   0  0  0  0  0  0  0  0  0  0  0  0  # atno 3515 bound_to 339 
   -3.6123   17.3773   72.7084 H   0  0  0  0  0  0  0  0  0  0  0  0  # atno 3523 bound_to 346 
   -7.6390   26.8109   63.6120 H   0  0  0  0  0  0  0  0  0  0  0  0  # atno 3576 bound_to 185 
   -7.5523   28.2126   65.5260 H   0  0  0  0  0  0  0  0  0  0  0  0  # atno 3663 bound_to 154 
   -1.7561   24.1783   72.5090 H   0  0  0  0  0  0  0  0  0  0  0  0  # atno 3793 bound_to 171 
   -7.2288   22.3021   71.7484 H   0  0  0  0  0  0  0  0  0  0  0  0  # atno 3800 bound_to 178 
  -15.3215    7.5217   77.0424 H   0  0  0  0  0  0  0  0  0  0  0  0  # atno 3973 bound_to 1471
  -20.0081   13.9241   64.0475 H   0  0  0  0  0  0  0  0  0  0  0  0  # atno 4183 bound_to 1244
  -12.4589   15.3950   61.3489 H   0  0  0  0  0  0  0  0  0  0  0  0  # atno 4268 bound_to 1114
  -16.3177   20.3340   58.5561 H   0  0  0  0  0  0  0  0  0  0  0  0  # atno 4280 bound_to 1130
  -10.3964   14.8940   57.0718 H   0  0  0  0  0  0  0  0  0  0  0  0  # atno 4409 bound_to 924 
  -15.0285    9.0682   77.4554 LP  0  0  0  0  0  0  0  0  0  0  0  0  # atno 4696 bound_to 1471
  -15.6844    8.0403   78.5416 LP  0  0  0  0  0  0  0  0  0  0  0  0  # atno 4697 bound_to 1471
  -15.0731   16.9431   76.1701 LP  0  0  0  0  0  0  0  0  0  0  0  0  # atno 4731 bound_to 414 
  -13.8352   17.9649   75.8698 LP  0  0  0  0  0  0  0  0  0  0  0  0  # atno 4732 bound_to 414 
  -14.0251   15.4965   60.9190 LP  0  0  0  0  0  0  0  0  0  0  0  0  # atno 4733 bound_to 1114
  -13.4365   16.4553   62.1026 LP  0  0  0  0  0  0  0  0  0  0  0  0  # atno 4734 bound_to 1114
  -11.8211   15.3078   56.4033 LP  0  0  0  0  0  0  0  0  0  0  0  0  # atno 4763 bound_to 924 
  -11.6535   15.2870   58.0275 LP  0  0  0  0  0  0  0  0  0  0  0  0  # atno 4764 bound_to 924 
  -20.3339   12.8355   62.8827 LP  0  0  0  0  0  0  0  0  0  0  0  0  # atno 4771 bound_to 1244
  -21.0278   12.6937   64.3541 LP  0  0  0  0  0  0  0  0  0  0  0  0  # atno 4772 bound_to 1244
   -7.3309   23.7361   72.5109 LP  0  0  0  0  0  0  0  0  0  0  0  0  # atno 4775 bound_to 178 
   -6.0534   23.4096   71.5476 LP  0  0  0  0  0  0  0  0  0  0  0  0  # atno 4776 bound_to 178 
   -2.9977   23.4847   71.7183 LP  0  0  0  0  0  0  0  0  0  0  0  0  # atno 4779 bound_to 171 
   -3.2142   24.9007   72.5023 LP  0  0  0  0  0  0  0  0  0  0  0  0  # atno 4780 bound_to 171 
   -8.8194   25.7323   63.9140 LP  0  0  0  0  0  0  0  0  0  0  0  0  # atno 4783 bound_to 185 
   -7.4953   25.2832   63.0704 LP  0  0  0  0  0  0  0  0  0  0  0  0  # atno 4784 bound_to 185 
   -2.0291   17.0015   72.6954 LP  0  0  0  0  0  0  0  0  0  0  0  0  # atno 4785 bound_to 346 
   -2.5162   18.4798   73.1893 LP  0  0  0  0  0  0  0  0  0  0  0  0  # atno 4786 bound_to 346 
   -2.8652   22.2360   75.1932 LP  0  0  0  0  0  0  0  0  0  0  0  0  # atno 4787 bound_to 339 
   -3.6728   21.2451   74.1771 LP  0  0  0  0  0  0  0  0  0  0  0  0  # atno 4788 bound_to 339 
   -6.8747   29.6261   65.0889 LP  0  0  0  0  0  0  0  0  0  0  0  0  # atno 4797 bound_to 154 
   -8.4998   29.4662   65.1030 LP  0  0  0  0  0  0  0  0  0  0  0  0  # atno 4798 bound_to 154 

$$$$
