unknown|prepared_Mpro-x0072|sdf|1|dock2
  -GOLD-   5 72214353D 1   1.00000     0.00000

 26 26  0  0  0  0  0  0  0  0  1 V2000
  -11.6739   14.9379   65.6947 C   0  0  0  0  0  0  0  0  0  0  0  0
  -10.4359   16.0683   66.2252 S   0  0  0  0  0  0  0  0  0  0  0  0
   -9.1443   15.3231   66.3899 O   0  0  0  0  0  0  0  0  0  0  0  0
  -10.2323   17.1400   65.2030 O   0  0  0  0  0  0  0  0  0  0  0  0
  -10.9510   16.7745   67.7185 N   0  0  0  0  0  0  0  0  0  0  0  0
  -11.0999   15.7008   68.6797 C   0  0  0  0  0  0  0  0  0  0  0  0
  -10.8832   16.1688   70.0953 C   0  0  0  0  0  0  0  0  0  0  0  0
  -11.8010   15.5393   71.0584 C   0  0  0  0  0  0  0  0  0  0  0  0
  -12.7628   14.6181   70.7232 C   0  0  0  0  0  0  0  0  0  0  0  0
  -13.5910   14.0632   71.6601 C   0  0  0  0  0  0  0  0  0  0  0  0
  -13.5010   14.4021   72.9912 C   0  0  0  0  0  0  0  0  0  0  0  0
  -12.5408   15.3261   73.3479 C   0  0  0  0  0  0  0  0  0  0  0  0
  -11.7002   15.8878   72.3893 C   0  0  0  0  0  0  0  0  0  0  0  0
  -12.0991   15.2727   64.7345 H   0  0  0  0  0  0  0  0  0  0  0  0
  -11.2982   13.9090   65.5457 H   0  0  0  0  0  0  0  0  0  0  0  0
  -12.5194   14.8688   66.4089 H   0  0  0  0  0  0  0  0  0  0  0  0
  -10.3382   17.5299   68.0340 H   0  0  0  0  0  0  0  0  0  0  0  0
  -10.3113   14.9532   68.4529 H   0  0  0  0  0  0  0  0  0  0  0  0
  -12.0778   15.2161   68.6211 H   0  0  0  0  0  0  0  0  0  0  0  0
   -9.8443   15.9046   70.3805 H   0  0  0  0  0  0  0  0  0  0  0  0
  -10.9226   17.2933   70.1585 H   0  0  0  0  0  0  0  0  0  0  0  0
  -12.8671   14.3272   69.7043 H   0  0  0  0  0  0  0  0  0  0  0  0
  -14.3392   13.3414   71.3723 H   0  0  0  0  0  0  0  0  0  0  0  0
  -14.1203   14.0006   73.7606 H   0  0  0  0  0  0  0  0  0  0  0  0
  -12.4451   15.6160   74.4000 H   0  0  0  0  0  0  0  0  0  0  0  0
  -10.9633   16.6035   72.6970 H   0  0  0  0  0  0  0  0  0  0  0  0
  1  2  1  0  0  0  0
  2  3  2  0  0  0  0
  2  4  2  0  0  0  0
  2  5  1  0  0  0  0
  5  6  1  0  0  0  0
  6  7  1  0  0  0  0
  7  8  1  0  0  0  0
  8  9  2  0  0  0  0
  9 10  1  0  0  0  0
 10 11  2  0  0  0  0
 11 12  1  0  0  0  0
 12 13  2  0  0  0  0
  8 13  1  0  0  0  0
  1 14  1  0  0  0  0
  1 15  1  0  0  0  0
  1 16  1  0  0  0  0
  5 17  1  0  0  0  0
  6 18  1  0  0  0  0
  6 19  1  0  0  0  0
  7 20  1  0  0  0  0
  7 21  1  0  0  0  0
  9 22  1  0  0  0  0
 10 23  1  0  0  0  0
 11 24  1  0  0  0  0
 12 25  1  0  0  0  0
 13 26  1  0  0  0  0
M  END
> <Gold.Version>
2022.1.0

> <Gold.Id.Protein>
6LU7|6LU7_protein|mol2

> <Gold.PLP.Fitness>
41.5614

> <Gold.PLP.PLP>
-39.3701

> <Gold.PLP.part.hbond>
-1.0000

> <Gold.PLP.part.metal>
0.0000

> <Gold.PLP.part.buried>
-6.1895

> <Gold.PLP.part.nonpolar>
-32.8391

> <Gold.PLP.part.repulsive>
0.1311

> <Gold.PLP.ligand.clash>
0.0000

> <Gold.PLP.ligand.torsion>
0.4346

> <Gold.PLP.Chemscore.Hbond>
1.0000

> <Gold.PLP.Chemscore.CHOScore>
0.0000

> <Gold.PLP.Chemscore.Metal>
0.0000

> <Gold.Chemscore.Hbonds>
donor molecule, donor type, donor heavy atom, donor atom, acceptor molecule, acceptor atom, score
      P1  H  1105  4261       L1     4  1.00

> <Gold.PLP.Chemscore.Internal.Correction>
0.0605

> <Gold.Protein.RotatedTorsions>
[ 3973 1471 1470 1467 ] final -123.48 input   60.00 | X-H torsion
[ 3372  414  413  411 ] final  107.70 input   60.00 | X-H torsion
[ 4268 1114 1113 1110 ] final  108.36 input   59.99 | X-H torsion
[ 4409  924  923  921 ] final -150.02 input   59.99 | X-H torsion
[ 4183 1244 1243 1241 ] final  -23.31 input   59.99 | X-H torsion
[ 3800  178  177  174 ] final   13.70 input   60.00 | X-H torsion
[ 3793  171  170  167 ] final   22.50 input   60.00 | X-H torsion
[ 3576  185  184  181 ] final -162.08 input   60.00 | X-H torsion
[ 3523  346  345  342 ] final  -55.59 input   60.01 | X-H torsion
[ 3515  339  338  335 ] final   36.14 input   60.00 | X-H torsion
[ 3663  154  153  150 ] final   77.00 input   60.00 | X-H torsion
[ 4280 1130 1129 1126 ] final -155.39 input   60.00 | X-H torsion

> <Gold.Protein.ActiveResidues>
 VAL20   THR21   CYS22   GLY23   THR24   THR25   THR26   LEU27   ASN28   PRO39  
 ARG40   HIS41   VAL42   CYS44   THR45   SER46   ASP48   MET49   LEU50   PRO52  
 TYR54   TYR118  ASN119  ILE136  GLY138  SER139  PHE140  LEU141  ASN142  GLY143 
 SER144  CYS145  GLY146  SER147  TYR161  HIS163  HIS164  MET165  GLU166  LEU167 
 PRO168  THR169  GLY170  VAL171  HIS172  ALA173  PHE181  PHE185  VAL186  ASP187 
 ARG188  GLN189  THR190  ALA191  GLN192  ALA193 

> <Gold.Protein.RotatedAtoms>
  -14.1093   17.3628   76.3357 H   0  0  0  0  0  0  0  0  0  0  0  0  # atno 3372 bound_to 414 
   -3.6622   21.3655   74.1680 H   0  0  0  0  0  0  0  0  0  0  0  0  # atno 3515 bound_to 339 
   -3.4904   17.1382   72.6319 H   0  0  0  0  0  0  0  0  0  0  0  0  # atno 3523 bound_to 346 
   -7.1686   25.8743   63.0773 H   0  0  0  0  0  0  0  0  0  0  0  0  # atno 3576 bound_to 185 
   -8.3093   29.7212   65.0285 H   0  0  0  0  0  0  0  0  0  0  0  0  # atno 3663 bound_to 154 
   -3.5576   24.2595   72.0104 H   0  0  0  0  0  0  0  0  0  0  0  0  # atno 3793 bound_to 171 
   -6.0714   23.4973   71.5986 H   0  0  0  0  0  0  0  0  0  0  0  0  # atno 3800 bound_to 178 
  -15.3027    8.9824   78.2033 H   0  0  0  0  0  0  0  0  0  0  0  0  # atno 3973 bound_to 1471
  -20.8714   13.0432   64.5937 H   0  0  0  0  0  0  0  0  0  0  0  0  # atno 4183 bound_to 1244
  -14.1940   15.7958   61.1640 H   0  0  0  0  0  0  0  0  0  0  0  0  # atno 4268 bound_to 1114
  -16.0721   18.7720   58.2218 H   0  0  0  0  0  0  0  0  0  0  0  0  # atno 4280 bound_to 1130
  -11.2956   15.1831   58.1032 H   0  0  0  0  0  0  0  0  0  0  0  0  # atno 4409 bound_to 924 
  -15.6925    7.4109   78.0414 LP  0  0  0  0  0  0  0  0  0  0  0  0  # atno 4696 bound_to 1471
  -15.0394    8.2265   76.7865 LP  0  0  0  0  0  0  0  0  0  0  0  0  # atno 4697 bound_to 1471
  -14.4502   18.3454   75.0841 LP  0  0  0  0  0  0  0  0  0  0  0  0  # atno 4731 bound_to 414 
  -15.5407   17.2324   75.5727 LP  0  0  0  0  0  0  0  0  0  0  0  0  # atno 4732 bound_to 414 
  -13.0260   16.3605   62.1463 LP  0  0  0  0  0  0  0  0  0  0  0  0  # atno 4733 bound_to 1114
  -12.6881   15.1877   61.0614 LP  0  0  0  0  0  0  0  0  0  0  0  0  # atno 4734 bound_to 1114
  -10.5026   14.9169   56.7074 LP  0  0  0  0  0  0  0  0  0  0  0  0  # atno 4763 bound_to 924 
  -12.0664   15.3866   56.6846 LP  0  0  0  0  0  0  0  0  0  0  0  0  # atno 4764 bound_to 924 
  -19.8683   13.8768   63.6206 LP  0  0  0  0  0  0  0  0  0  0  0  0  # atno 4771 bound_to 1244
  -20.6239   12.5396   63.0662 LP  0  0  0  0  0  0  0  0  0  0  0  0  # atno 4772 bound_to 1244
   -7.1474   22.2798   71.6892 LP  0  0  0  0  0  0  0  0  0  0  0  0  # atno 4775 bound_to 178 
   -7.4024   23.6623   72.5202 LP  0  0  0  0  0  0  0  0  0  0  0  0  # atno 4776 bound_to 178 
   -2.2483   24.8572   72.7697 LP  0  0  0  0  0  0  0  0  0  0  0  0  # atno 4779 bound_to 171 
   -2.1492   23.4465   71.9531 LP  0  0  0  0  0  0  0  0  0  0  0  0  # atno 4780 bound_to 171 
   -8.2400   26.7660   63.9169 LP  0  0  0  0  0  0  0  0  0  0  0  0  # atno 4783 bound_to 185 
   -8.5485   25.1928   63.6060 LP  0  0  0  0  0  0  0  0  0  0  0  0  # atno 4784 bound_to 185 
   -1.8722   17.2167   72.7853 LP  0  0  0  0  0  0  0  0  0  0  0  0  # atno 4785 bound_to 346 
   -2.7958   18.5054   73.1764 LP  0  0  0  0  0  0  0  0  0  0  0  0  # atno 4786 bound_to 346 
   -2.9900   20.5650   75.4151 LP  0  0  0  0  0  0  0  0  0  0  0  0  # atno 4787 bound_to 339 
   -2.8124   22.1834   75.2890 LP  0  0  0  0  0  0  0  0  0  0  0  0  # atno 4788 bound_to 339 
   -7.8785   28.2281   65.5113 LP  0  0  0  0  0  0  0  0  0  0  0  0  # atno 4797 bound_to 154 
   -6.7336   29.3448   65.1816 LP  0  0  0  0  0  0  0  0  0  0  0  0  # atno 4798 bound_to 154 

$$$$
