unknown|prepared_Mpro-x1093|sdf|1|dock4
  -GOLD-   5 72214353D 1   1.00000     0.00000

 37 39  0  0  0  0  0  0  0  0  1 V2000
  -14.3611   15.6092   72.6215 C   0  0  0  0  0  0  0  0  0  0  0  0
  -13.4981   14.8034   71.8252 N   0  0  0  0  0  0  0  0  0  0  0  0
  -12.1193   15.1439   71.8338 C   0  0  0  0  0  0  0  0  0  0  0  0
  -11.5004   14.7261   70.4785 C   0  0  0  0  0  0  0  0  0  0  0  0
  -12.0043   13.3771   70.1760 N   0  0  0  0  0  0  0  0  0  0  0  0
  -12.6459   12.6383   71.2374 C   0  0  0  0  0  0  0  0  0  0  0  0
  -13.8462   13.4404   71.6815 C   0  0  0  0  0  0  0  0  0  0  0  0
  -11.8509   12.8639   68.8865 C   0  0  0  0  0  0  0  0  0  0  0  0
  -12.2778   11.7070   68.6220 O   0  0  0  0  0  0  0  0  0  0  0  0
  -11.1946   13.6687   67.8384 C   0  0  0  0  0  0  0  0  0  0  0  0
  -11.8176   13.4782   66.5049 C   0  0  0  0  0  0  0  0  0  0  0  0
  -12.9160   14.1177   65.9611 C   0  0  0  0  0  0  0  0  0  0  0  0
  -13.1784   13.6743   64.7293 N   0  0  0  0  0  0  0  0  0  0  0  0
  -12.2410   12.7347   64.4649 C   0  0  0  0  0  0  0  0  0  0  0  0
  -12.0781   11.9936   63.3504 N   0  0  0  0  0  0  0  0  0  0  0  0
  -11.0723   11.0971   63.2723 C   0  0  0  0  0  0  0  0  0  0  0  0
  -10.1935   10.9203   64.3258 C   0  0  0  0  0  0  0  0  0  0  0  0
  -10.3664   11.6838   65.4667 C   0  0  0  0  0  0  0  0  0  0  0  0
  -11.3907   12.5941   65.5405 C   0  0  0  0  0  0  0  0  0  0  0  0
  -14.9396   16.3649   72.0557 H   0  0  0  0  0  0  0  0  0  0  0  0
  -15.0601   14.9281   73.1678 H   0  0  0  0  0  0  0  0  0  0  0  0
  -13.7774   16.1321   73.3959 H   0  0  0  0  0  0  0  0  0  0  0  0
  -11.6231   14.5935   72.6624 H   0  0  0  0  0  0  0  0  0  0  0  0
  -11.9497   16.2049   71.9983 H   0  0  0  0  0  0  0  0  0  0  0  0
  -11.8822   15.4326   69.7409 H   0  0  0  0  0  0  0  0  0  0  0  0
  -10.4173   14.6985   70.6069 H   0  0  0  0  0  0  0  0  0  0  0  0
  -12.8947   11.6154   70.9250 H   0  0  0  0  0  0  0  0  0  0  0  0
  -11.9407   12.6057   72.1179 H   0  0  0  0  0  0  0  0  0  0  0  0
  -14.6370   13.2574   70.9069 H   0  0  0  0  0  0  0  0  0  0  0  0
  -14.2700   13.0506   72.6324 H   0  0  0  0  0  0  0  0  0  0  0  0
  -10.1014   13.4177   67.7967 H   0  0  0  0  0  0  0  0  0  0  0  0
  -11.2262   14.7461   68.1495 H   0  0  0  0  0  0  0  0  0  0  0  0
  -13.4603   14.8772   66.5129 H   0  0  0  0  0  0  0  0  0  0  0  0
  -13.9648   14.0006   64.0955 H   0  0  0  0  0  0  0  0  0  0  0  0
  -10.9357   10.4909   62.3685 H   0  0  0  0  0  0  0  0  0  0  0  0
   -9.3757   10.1962   64.2708 H   0  0  0  0  0  0  0  0  0  0  0  0
   -9.6789   11.5453   66.2903 H   0  0  0  0  0  0  0  0  0  0  0  0
  1  2  1  0  0  0  0
  2  3  1  0  0  0  0
  3  4  1  0  0  0  0
  4  5  1  0  0  0  0
  5  6  1  0  0  0  0
  6  7  1  0  0  0  0
  5  8  1  0  0  0  0
  8  9  2  0  0  0  0
  8 10  1  0  0  0  0
 10 11  1  0  0  0  0
 11 12  2  0  0  0  0
 12 13  1  0  0  0  0
 13 14  1  0  0  0  0
 14 15  2  0  0  0  0
 15 16  1  0  0  0  0
 16 17  2  0  0  0  0
 17 18  1  0  0  0  0
 18 19  2  0  0  0  0
  7  2  1  0  0  0  0
 19 11  1  0  0  0  0
 19 14  1  0  0  0  0
  1 20  1  0  0  0  0
  1 21  1  0  0  0  0
  1 22  1  0  0  0  0
  3 23  1  0  0  0  0
  3 24  1  0  0  0  0
  4 25  1  0  0  0  0
  4 26  1  0  0  0  0
  6 27  1  0  0  0  0
  6 28  1  0  0  0  0
  7 29  1  0  0  0  0
  7 30  1  0  0  0  0
 10 31  1  0  0  0  0
 10 32  1  0  0  0  0
 12 33  1  0  0  0  0
 13 34  1  0  0  0  0
 16 35  1  0  0  0  0
 17 36  1  0  0  0  0
 18 37  1  0  0  0  0
M  END
> <Gold.Version>
2022.1.0

> <Gold.Id.Protein>
6LU7|6LU7_protein|mol2

> <Gold.PLP.Fitness>
58.7231

> <Gold.PLP.PLP>
-48.0744

> <Gold.PLP.part.hbond>
-1.5234

> <Gold.PLP.part.metal>
0.0000

> <Gold.PLP.part.buried>
-6.0292

> <Gold.PLP.part.nonpolar>
-42.4734

> <Gold.PLP.part.repulsive>
0.5389

> <Gold.PLP.ligand.clash>
0.0000

> <Gold.PLP.ligand.torsion>
0.6793

> <Gold.PLP.Chemscore.Hbond>
1.6338

> <Gold.PLP.Chemscore.CHOScore>
2.3686

> <Gold.PLP.Chemscore.Metal>
0.0000

> <Gold.Chemscore.Hbonds>
donor molecule, donor type, donor heavy atom, donor atom, acceptor molecule, acceptor atom, score
      L1  H    13    34       P1  1262  1.00
      P1  H  1281  4132       L1     9  0.63
      L1  C    12    33       P1  1266  1.00
      L1  C    16    35       P1  1289  0.62
      L1  C    16    35       P1  1081  0.75

> <Gold.PLP.Chemscore.Internal.Correction>
0.0001

> <Gold.Protein.RotatedTorsions>
[ 3973 1471 1470 1467 ] final   -8.71 input   60.00 | X-H torsion
[ 3372  414  413  411 ] final   49.25 input   60.00 | X-H torsion
[ 4268 1114 1113 1110 ] final   53.13 input   59.99 | X-H torsion
[ 4409  924  923  921 ] final  -57.19 input   59.99 | X-H torsion
[ 4183 1244 1243 1241 ] final  101.23 input   59.99 | X-H torsion
[ 3800  178  177  174 ] final   63.78 input   60.00 | X-H torsion
[ 3793  171  170  167 ] final  -44.47 input   60.00 | X-H torsion
[ 3576  185  184  181 ] final -155.66 input   60.00 | X-H torsion
[ 3523  346  345  342 ] final   47.25 input   60.01 | X-H torsion
[ 3515  339  338  335 ] final -139.61 input   60.00 | X-H torsion
[ 3663  154  153  150 ] final  135.48 input   60.00 | X-H torsion
[ 4280 1130 1129 1126 ] final  151.20 input   60.00 | X-H torsion

> <Gold.Protein.ActiveResidues>
 VAL20   THR21   CYS22   GLY23   THR24   THR25   THR26   LEU27   ASN28   PRO39  
 ARG40   HIS41   VAL42   CYS44   THR45   SER46   ASP48   MET49   LEU50   PRO52  
 TYR54   TYR118  ASN119  ILE136  GLY138  SER139  PHE140  LEU141  ASN142  GLY143 
 SER144  CYS145  GLY146  SER147  TYR161  HIS163  HIS164  MET165  GLU166  LEU167 
 PRO168  THR169  GLY170  VAL171  HIS172  ALA173  PHE181  PHE185  VAL186  ASP187 
 ARG188  GLN189  THR190  ALA191  GLN192  ALA193 

> <Gold.Protein.RotatedAtoms>
  -13.8578   18.0422   75.7780 H   0  0  0  0  0  0  0  0  0  0  0  0  # atno 3372 bound_to 414 
   -2.6615   21.3088   75.7479 H   0  0  0  0  0  0  0  0  0  0  0  0  # atno 3515 bound_to 339 
   -3.0668   18.4455   73.1360 H   0  0  0  0  0  0  0  0  0  0  0  0  # atno 3523 bound_to 346 
   -7.1935   25.7739   63.0602 H   0  0  0  0  0  0  0  0  0  0  0  0  # atno 3576 bound_to 185 
   -7.4312   29.9705   64.9690 H   0  0  0  0  0  0  0  0  0  0  0  0  # atno 3663 bound_to 154 
   -3.0595   24.9606   72.5825 H   0  0  0  0  0  0  0  0  0  0  0  0  # atno 3793 bound_to 171 
   -6.4706   23.9800   72.0841 H   0  0  0  0  0  0  0  0  0  0  0  0  # atno 3800 bound_to 178 
  -15.0204    8.3082   76.8058 H   0  0  0  0  0  0  0  0  0  0  0  0  # atno 3973 bound_to 1471
  -20.5785   12.5850   63.0282 H   0  0  0  0  0  0  0  0  0  0  0  0  # atno 4183 bound_to 1244
  -13.9709   16.3423   61.8002 H   0  0  0  0  0  0  0  0  0  0  0  0  # atno 4268 bound_to 1114
  -15.6755   18.6238   58.9489 H   0  0  0  0  0  0  0  0  0  0  0  0  # atno 4280 bound_to 1130
  -12.1828   15.4317   57.1079 H   0  0  0  0  0  0  0  0  0  0  0  0  # atno 4409 bound_to 924 
  -15.3390    8.9423   78.2701 LP  0  0  0  0  0  0  0  0  0  0  0  0  # atno 4696 bound_to 1471
  -15.6771    7.3741   77.9652 LP  0  0  0  0  0  0  0  0  0  0  0  0  # atno 4697 bound_to 1471
  -15.2752   17.9494   74.9841 LP  0  0  0  0  0  0  0  0  0  0  0  0  # atno 4731 bound_to 414 
  -14.9689   16.9443   76.2341 LP  0  0  0  0  0  0  0  0  0  0  0  0  # atno 4732 bound_to 414 
  -12.4285   15.8237   61.8017 LP  0  0  0  0  0  0  0  0  0  0  0  0  # atno 4733 bound_to 1114
  -13.5103   15.1740   60.7653 LP  0  0  0  0  0  0  0  0  0  0  0  0  # atno 4734 bound_to 1114
  -10.8832   15.0551   58.0119 LP  0  0  0  0  0  0  0  0  0  0  0  0  # atno 4763 bound_to 924 
  -10.7923   14.9981   56.3825 LP  0  0  0  0  0  0  0  0  0  0  0  0  # atno 4764 bound_to 924 
  -20.9057   12.9804   64.5724 LP  0  0  0  0  0  0  0  0  0  0  0  0  # atno 4771 bound_to 1244
  -19.8815   13.8975   63.6911 LP  0  0  0  0  0  0  0  0  0  0  0  0  # atno 4772 bound_to 1244
   -6.4562   22.5182   71.3693 LP  0  0  0  0  0  0  0  0  0  0  0  0  # atno 4775 bound_to 178 
   -7.6916   22.9379   72.3512 LP  0  0  0  0  0  0  0  0  0  0  0  0  # atno 4776 bound_to 178 
   -1.7433   24.0178   72.4194 LP  0  0  0  0  0  0  0  0  0  0  0  0  # atno 4779 bound_to 171 
   -3.1559   23.5797   71.7272 LP  0  0  0  0  0  0  0  0  0  0  0  0  # atno 4780 bound_to 171 
   -8.1490   26.8048   63.8800 LP  0  0  0  0  0  0  0  0  0  0  0  0  # atno 4783 bound_to 185 
   -8.6144   25.2551   63.6600 LP  0  0  0  0  0  0  0  0  0  0  0  0  # atno 4784 bound_to 185 
   -3.3038   16.9376   72.5719 LP  0  0  0  0  0  0  0  0  0  0  0  0  # atno 4785 bound_to 346 
   -1.7908   17.4679   72.8821 LP  0  0  0  0  0  0  0  0  0  0  0  0  # atno 4786 bound_to 346 
   -3.2840   22.2101   74.5445 LP  0  0  0  0  0  0  0  0  0  0  0  0  # atno 4787 bound_to 339 
   -3.5263   20.5954   74.5685 LP  0  0  0  0  0  0  0  0  0  0  0  0  # atno 4788 bound_to 339 
   -8.5435   28.8310   65.3043 LP  0  0  0  0  0  0  0  0  0  0  0  0  # atno 4797 bound_to 154 
   -6.9529   28.4909   65.4486 LP  0  0  0  0  0  0  0  0  0  0  0  0  # atno 4798 bound_to 154 

$$$$
