#       Name:                xxxx
#       Creating user name   williammccorkindale
#       Creation time:       Sun May 22 19:49:22 2022


#       File generated by GOLD software.
#

@<TRIPOS>MOLECULE
xxxx|x0072|mol2|1|dock5
    26    26     1
SMALL
NO_CHARGES


@<TRIPOS>ATOM
      1 C01        -10.6397  19.4270  67.0086 C.3            1 LIG1101            0.0000
      2 S02         -9.9344  17.7574  67.0904 S.o2           1 LIG1101            0.0000
      3 O03         -8.6929  17.7264  67.8694 O.2            1 LIG1101            0.0000
      4 O04         -9.4269  17.3315  65.7972 O.2            1 LIG1101            0.0000
      5 N05        -11.0957  16.6579  67.6794 N.pl3          1 LIG1101            0.0000
      6 C06        -11.1323  16.4449  69.1033 C.3            1 LIG1101            0.0000
      7 C07        -11.5659  15.0506  69.5336 C.3            1 LIG1101            0.0000
      8 C08        -12.2072  15.2464  70.8986 C.ar           1 LIG1101            0.0000
      9 C09        -13.4683  14.7397  71.1838 C.ar           1 LIG1101            0.0000
     10 C10        -14.0039  14.9228  72.4478 C.ar           1 LIG1101            0.0000
     11 C11        -13.2744  15.5811  73.4252 C.ar           1 LIG1101            0.0000
     12 C12        -12.0087  16.0748  73.1379 C.ar           1 LIG1101            0.0000
     13 C13        -11.4809  15.9004  71.8742 C.ar           1 LIG1101            0.0000
     14 H1          -9.9248  20.1005  66.5381 H              1 LIG1101            0.0000
     15 H2         -11.5575  19.4051  66.4229 H              1 LIG1101            0.0000
     16 H3         -10.8601  19.7777  68.0158 H              1 LIG1101            0.0000
     17 H4         -11.7331  16.1747  67.0546 H              1 LIG1101            0.0000
     18 H5         -11.8279  17.1633  69.5346 H              1 LIG1101            0.0000
     19 H6         -10.1334  16.6250  69.4977 H              1 LIG1101            0.0000
     20 H7         -10.7057  14.3867  69.6058 H              1 LIG1101            0.0000
     21 H8         -12.2850  14.6376  68.8277 H              1 LIG1101            0.0000
     22 H9         -14.0307  14.2035  70.4208 H              1 LIG1101            0.0000
     23 H10        -15.0012  14.5486  72.6743 H              1 LIG1101            0.0000
     24 H11        -13.6948  15.7114  74.4214 H              1 LIG1101            0.0000
     25 H12        -11.4365  16.5960  73.9040 H              1 LIG1101            0.0000
     26 H13        -10.4864  16.2805  71.6455 H              1 LIG1101            0.0000
@<TRIPOS>BOND
    1    1    2 1     
    2    2    3 2     
    3    2    4 2     
    4    2    5 1     
    5    5    6 1     
    6    6    7 1     
    7    7    8 1     
    8    8    9 ar    
    9    9   10 ar    
   10   10   11 ar    
   11   11   12 ar    
   12    8   13 ar    
   13   12   13 ar    
   14    1   14 1     
   15    1   15 1     
   16    1   16 1     
   17    5   17 1     
   18    6   18 1     
   19    6   19 1     
   20    7   20 1     
   21    7   21 1     
   22    9   22 1     
   23   10   23 1     
   24   11   24 1     
   25   12   25 1     
   26   13   26 1     
@<TRIPOS>SUBSTRUCTURE
      1 LIG1101        1
@<TRIPOS>SET
LONE_PAIRS      STATIC     ATOMS    <user>   **** ""
2 3 4
DONOR_HYDROGENS      STATIC     ATOMS    <user>   **** ""
1 17
ATOM$BLUE        STATIC     ATOMS    COLORGROUP SYSTEM
2 3 4
ATOM$RED        STATIC     ATOMS    COLORGROUP SYSTEM
1 17
@<TRIPOS>COMMENT
> <Gold.Version>
2022.1.0

> <Gold.Id.Protein>
6LU7|6LU7_protein|mol2

> <Gold.Protein.RotatedTorsions>
[ 3973 1471 1470 1467 ] final   -4.96 input   60.00 | X-H torsion
[ 3372  414  413  411 ] final -100.14 input   60.00 | X-H torsion
[ 4268 1114 1113 1110 ] final    4.64 input   59.99 | X-H torsion
[ 4409  924  923  921 ] final   30.66 input   59.99 | X-H torsion
[ 4183 1244 1243 1241 ] final  -41.15 input   59.99 | X-H torsion
[ 3800  178  177  174 ] final -109.91 input   60.00 | X-H torsion
[ 3793  171  170  167 ] final  154.17 input   60.00 | X-H torsion
[ 3576  185  184  181 ] final   71.49 input   60.00 | X-H torsion
[ 3523  346  345  342 ] final    2.62 input   60.01 | X-H torsion
[ 3515  339  338  335 ] final  -52.58 input   60.00 | X-H torsion
[ 3663  154  153  150 ] final  143.71 input   60.00 | X-H torsion
[ 4280 1130 1129 1126 ] final   72.01 input   60.00 | X-H torsion

> <Gold.Protein.ActiveResidues>
 VAL20   THR21   CYS22   GLY23   THR24   THR25   THR26   LEU27   ASN28   PRO39  
 ARG40   HIS41   VAL42   CYS44   THR45   SER46   ASP48   MET49   LEU50   PRO52  
 TYR54   TYR118  ASN119  ILE136  GLY138  SER139  PHE140  LEU141  ASN142  GLY143 
 SER144  CYS145  GLY146  SER147  TYR161  HIS163  HIS164  MET165  GLU166  LEU167 
 PRO168  THR169  GLY170  VAL171  HIS172  ALA173  PHE181  PHE185  VAL186  ASP187 
 ARG188  GLN189  THR190  ALA191  GLN192  ALA193 

> <Gold.Protein.RotatedAtoms>
  -15.5130   17.6007   75.2060 H   0  0  0  0  0  0  0  0  0  0  0  0  # atno 3372 bound_to 414 
   -3.2705   20.4438   75.0111 H   0  0  0  0  0  0  0  0  0  0  0  0  # atno 3515 bound_to 339 
   -3.5766   17.9935   72.9330 H   0  0  0  0  0  0  0  0  0  0  0  0  # atno 3523 bound_to 346 
   -8.3244   26.7107   63.9480 H   0  0  0  0  0  0  0  0  0  0  0  0  # atno 3576 bound_to 185 
   -7.3029   29.9336   64.9836 H   0  0  0  0  0  0  0  0  0  0  0  0  # atno 3663 bound_to 154 
   -2.0099   23.5375   72.0473 H   0  0  0  0  0  0  0  0  0  0  0  0  # atno 3793 bound_to 171 
   -7.1943   22.2944   71.7229 H   0  0  0  0  0  0  0  0  0  0  0  0  # atno 3800 bound_to 178 
  -15.0338    8.2491   76.7962 H   0  0  0  0  0  0  0  0  0  0  0  0  # atno 3973 bound_to 1471
  -20.7187   13.2834   64.6510 H   0  0  0  0  0  0  0  0  0  0  0  0  # atno 4183 bound_to 1244
  -13.2816   16.4324   62.1288 H   0  0  0  0  0  0  0  0  0  0  0  0  # atno 4268 bound_to 1114
  -15.5832   19.5853   59.6496 H   0  0  0  0  0  0  0  0  0  0  0  0  # atno 4280 bound_to 1130
  -11.2694   15.1411   56.2316 H   0  0  0  0  0  0  0  0  0  0  0  0  # atno 4409 bound_to 924 
  -15.3142    8.9761   78.2247 LP  0  0  0  0  0  0  0  0  0  0  0  0  # atno 4696 bound_to 1471
  -15.6885    7.3998   78.0202 LP  0  0  0  0  0  0  0  0  0  0  0  0  # atno 4697 bound_to 1471
  -14.5305   17.0612   76.3857 LP  0  0  0  0  0  0  0  0  0  0  0  0  # atno 4731 bound_to 414 
  -14.0468   18.2770   75.4087 LP  0  0  0  0  0  0  0  0  0  0  0  0  # atno 4732 bound_to 414 
  -12.5227   15.3031   61.2363 LP  0  0  0  0  0  0  0  0  0  0  0  0  # atno 4733 bound_to 1114
  -14.1102   15.6039   60.9997 LP  0  0  0  0  0  0  0  0  0  0  0  0  # atno 4734 bound_to 1114
  -12.0795   15.4075   57.6175 LP  0  0  0  0  0  0  0  0  0  0  0  0  # atno 4763 bound_to 924 
  -10.5159   14.9383   57.6596 LP  0  0  0  0  0  0  0  0  0  0  0  0  # atno 4764 bound_to 924 
  -19.8526   13.7533   63.3561 LP  0  0  0  0  0  0  0  0  0  0  0  0  # atno 4771 bound_to 1244
  -20.7934   12.4212   63.2730 LP  0  0  0  0  0  0  0  0  0  0  0  0  # atno 4772 bound_to 1244
   -7.3620   23.7056   72.5157 LP  0  0  0  0  0  0  0  0  0  0  0  0  # atno 4775 bound_to 178 
   -6.0570   23.4479   71.5685 LP  0  0  0  0  0  0  0  0  0  0  0  0  # atno 4776 bound_to 178 
   -3.5342   24.0926   71.9201 LP  0  0  0  0  0  0  0  0  0  0  0  0  # atno 4779 bound_to 171 
   -2.4221   24.9383   72.7655 LP  0  0  0  0  0  0  0  0  0  0  0  0  # atno 4780 bound_to 171 
   -8.4754   25.1399   63.5509 LP  0  0  0  0  0  0  0  0  0  0  0  0  # atno 4783 bound_to 185 
   -7.1491   25.9765   63.0950 LP  0  0  0  0  0  0  0  0  0  0  0  0  # atno 4784 bound_to 185 
   -2.6174   16.7350   72.5530 LP  0  0  0  0  0  0  0  0  0  0  0  0  # atno 4785 bound_to 346 
   -1.9638   18.1258   73.1054 LP  0  0  0  0  0  0  0  0  0  0  0  0  # atno 4786 bound_to 346 
   -2.6603   21.8256   75.6163 LP  0  0  0  0  0  0  0  0  0  0  0  0  # atno 4787 bound_to 339 
   -3.5367   21.8511   74.2387 LP  0  0  0  0  0  0  0  0  0  0  0  0  # atno 4788 bound_to 339 
   -8.5736   28.9565   65.2637 LP  0  0  0  0  0  0  0  0  0  0  0  0  # atno 4797 bound_to 154 
   -7.0520   28.4025   65.4745 LP  0  0  0  0  0  0  0  0  0  0  0  0  # atno 4798 bound_to 154 

> <Gold.Score>
     Score     S(PLP)   S(hbond)     S(cho)   S(metal)  DE(clash)   DE(tors)     intcor
     42.70     -40.67       1.00       0.00       0.00       0.00       1.03       1.09

> <Gold.PLP.Fitness>
42.6965

> <Gold.PLP.PLP>
-40.6734

> <Gold.PLP.part.hbond>
-1.0000

> <Gold.PLP.part.metal>
0.0000

> <Gold.PLP.part.buried>
-5.0326

> <Gold.PLP.part.nonpolar>
-35.3875

> <Gold.PLP.part.repulsive>
0.0155

> <Gold.PLP.ligand.clash>
0.0000

> <Gold.PLP.ligand.torsion>
1.0316

> <Gold.PLP.Chemscore.Hbond>
1.0000

> <Gold.PLP.Chemscore.CHOScore>
0.0000

> <Gold.PLP.Chemscore.Metal>
0.0000

> <Gold.Chemscore.Hbonds>
donor molecule, donor type, donor heavy atom, donor atom, acceptor molecule, acceptor atom, score
      P1  H  1105  4261       L1     4  1.00

> <Gold.PLP.Chemscore.Internal.Correction>
1.0863

