#       Name:                unknown
#       Creating user name   williammccorkindale
#       Creation time:       Tue Jun  7 14:55:43 2022


#       File generated by GOLD software.
#

@<TRIPOS>MOLECULE
unknown|prepared_Mpro-x0397|mol2|1|dock3
    35    36     1
SMALL
NO_CHARGES


@<TRIPOS>ATOM
      1 C1         -12.3003  11.2113  69.8514 C.3            1 RES1               0.0000
      2 N2         -11.7126  12.4605  69.4149 N.am           1 RES1               0.0000
      3 C3         -10.7922  12.4571  68.3072 C.3            1 RES1               0.0000
      4 C4         -11.4910  12.6624  67.0087 C.2            1 RES1               0.0000
      5 C5         -11.4945  11.8720  65.8782 C.2            1 RES1               0.0000
      6 C6         -12.3052  12.4997  64.9252 C.2            1 RES1               0.0000
      7 C7         -12.5953  12.0002  63.5554 C.3            1 RES1               0.0000
      8 O8         -12.7403  13.5997  65.4974 O.3            1 RES1               0.0000
      9 N9         -12.2780  13.7105  66.7066 N.2            1 RES1               0.0000
     10 C10        -12.0809  13.6404  70.1140 C.2            1 RES1               0.0000
     11 O11        -11.8229  14.7858  69.6700 O.2            1 RES1               0.0000
     12 N12        -12.7678  13.6008  71.3660 N.am           1 RES1               0.0000
     13 C13        -13.1548  14.7736  72.0988 C.3            1 RES1               0.0000
     14 C14        -12.6379  14.7949  73.5446 C.3            1 RES1               0.0000
     15 C15        -12.0529  15.7481  72.5163 C.3            1 RES1               0.0000
     16 H16        -13.2626  11.3793  70.4088 H              1 RES1               0.0000
     17 H17        -11.6229  10.7389  70.6155 H              1 RES1               0.0000
     18 H18        -12.5266  10.5235  69.0358 H              1 RES1               0.0000
     19 H19        -10.0025  13.2153  68.4825 H              1 RES1               0.0000
     20 H20        -10.2514  11.4693  68.3075 H              1 RES1               0.0000
     21 H21        -10.9610  10.9423  65.7716 H              1 RES1               0.0000
     22 H22        -13.5745  12.3245  63.1846 H              1 RES1               0.0000
     23 H23        -12.5830  10.8798  63.5290 H              1 RES1               0.0000
     24 H24        -11.7831  12.3246  62.8531 H              1 RES1               0.0000
     25 H25        -13.0016  12.6740  71.7712 H              1 RES1               0.0000
     26 H26        -14.1653  15.2072  71.9186 H              1 RES1               0.0000
     27 H27        -12.0140  13.9509  73.8867 H              1 RES1               0.0000
     28 H28        -13.3083  15.2275  74.3145 H              1 RES1               0.0000
     29 H29        -12.3217  16.8084  72.6550 H              1 RES1               0.0000
     30 H30        -11.0608  15.4849  72.1392 H              1 RES1               0.0000
     31 ****       -13.7395  13.5780  65.5301 LP             1 RES1               0.0000
     32 ****       -12.4415  14.3881  64.9596 LP             1 RES1               0.0000
     33 ****       -12.4793  14.4691  67.3262 LP             1 RES1               0.0000
     34 ****       -11.3437  14.8879  68.7982 LP             1 RES1               0.0000
     35 ****       -12.0966  15.5962  70.1880 LP             1 RES1               0.0000
@<TRIPOS>BOND
    1    1    2 1     
    2    2    3 1     
    3    3    4 1     
    4    4    5 1     
    5    5    6 2     
    6    6    7 1     
    7    6    8 1     
    8    8    9 1     
    9    2   10 am    
   10   10   11 2     
   11   10   12 am    
   12   12   13 1     
   13   13   14 1     
   14   14   15 1     
   15    4    9 2     
   16   15   13 1     
   17    1   16 1     
   18    1   17 1     
   19    1   18 1     
   20    3   19 1     
   21    3   20 1     
   22    5   21 1     
   23    7   22 1     
   24    7   23 1     
   25    7   24 1     
   26   12   25 1     
   27   13   26 1     
   28   14   27 1     
   29   14   28 1     
   30   15   29 1     
   31   15   30 1     
   32    8   31 1     
   33    8   32 1     
   34    9   33 1     
   35   11   34 1     
   36   11   35 1     
@<TRIPOS>SUBSTRUCTURE
      1 RES1           1
@<TRIPOS>SET
LONE_PAIRS      STATIC     ATOMS    <user>   **** ""
5 31 32 33 34 35
DONOR_HYDROGENS      STATIC     ATOMS    <user>   **** ""
1 25
ATOM$BLUE        STATIC     ATOMS    COLORGROUP SYSTEM
5 31 32 33 34 35
ATOM$RED        STATIC     ATOMS    COLORGROUP SYSTEM
1 25
@<TRIPOS>COMMENT
> <Gold.Version>
2022.1.0

> <Gold.Id.Protein>
6LU7|6LU7_protein|mol2

> <Gold.Protein.RotatedTorsions>
[ 3973 1471 1470 1467 ] final  155.83 input   60.00 | X-H torsion
[ 3372  414  413  411 ] final   65.53 input   60.00 | X-H torsion
[ 4268 1114 1113 1110 ] final   33.92 input   59.99 | X-H torsion
[ 4409  924  923  921 ] final  112.77 input   59.99 | X-H torsion
[ 4183 1244 1243 1241 ] final   50.94 input   59.99 | X-H torsion
[ 3800  178  177  174 ] final   95.62 input   60.00 | X-H torsion
[ 3793  171  170  167 ] final  -13.77 input   60.00 | X-H torsion
[ 3576  185  184  181 ] final  -98.76 input   60.00 | X-H torsion
[ 3523  346  345  342 ] final  -34.01 input   60.01 | X-H torsion
[ 3515  339  338  335 ] final   45.79 input   60.00 | X-H torsion
[ 3663  154  153  150 ] final   19.68 input   60.00 | X-H torsion
[ 4280 1130 1129 1126 ] final  -61.05 input   60.00 | X-H torsion

> <Gold.Protein.ActiveResidues>
 VAL20   THR21   CYS22   GLY23   THR24   THR25   THR26   LEU27   ASN28   PRO39  
 ARG40   HIS41   VAL42   CYS44   THR45   SER46   ASP48   MET49   LEU50   PRO52  
 TYR54   TYR118  ASN119  ILE136  GLY138  SER139  PHE140  LEU141  ASN142  GLY143 
 SER144  CYS145  GLY146  SER147  TYR161  HIS163  HIS164  MET165  GLU166  LEU167 
 PRO168  THR169  GLY170  VAL171  HIS172  ALA173  PHE181  PHE185  VAL186  ASP187 
 ARG188  GLN189  THR190  ALA191  GLN192  ALA193 

> <Gold.Protein.RotatedAtoms>
  -13.8423   17.8648   75.9744 H   0  0  0  0  0  0  0  0  0  0  0  0  # atno 3372 bound_to 414 
   -3.6380   21.5211   74.1670 H   0  0  0  0  0  0  0  0  0  0  0  0  # atno 3515 bound_to 339 
   -3.6312   17.4435   72.7307 H   0  0  0  0  0  0  0  0  0  0  0  0  # atno 3523 bound_to 346 
   -7.7754   25.1068   63.1695 H   0  0  0  0  0  0  0  0  0  0  0  0  # atno 3576 bound_to 185 
   -8.5549   28.8966   65.2855 H   0  0  0  0  0  0  0  0  0  0  0  0  # atno 3663 bound_to 154 
   -3.4161   24.7241   72.3322 H   0  0  0  0  0  0  0  0  0  0  0  0  # atno 3793 bound_to 171 
   -6.9049   23.9817   72.3586 H   0  0  0  0  0  0  0  0  0  0  0  0  # atno 3800 bound_to 178 
  -15.7063    7.8719   78.4736 H   0  0  0  0  0  0  0  0  0  0  0  0  # atno 3973 bound_to 1471
  -20.9862   12.3859   63.6816 H   0  0  0  0  0  0  0  0  0  0  0  0  # atno 4183 bound_to 1244
  -13.7296   16.4337   61.9765 H   0  0  0  0  0  0  0  0  0  0  0  0  # atno 4268 bound_to 1114
  -16.4134   20.1020   58.2378 H   0  0  0  0  0  0  0  0  0  0  0  0  # atno 4280 bound_to 1130
  -10.3974   14.8941   57.0628 H   0  0  0  0  0  0  0  0  0  0  0  0  # atno 4409 bound_to 924 
  -15.2506    7.6454   76.9279 LP  0  0  0  0  0  0  0  0  0  0  0  0  # atno 4696 bound_to 1471
  -15.0749    9.1104   77.6277 LP  0  0  0  0  0  0  0  0  0  0  0  0  # atno 4697 bound_to 1471
  -15.0712   18.1151   74.9375 LP  0  0  0  0  0  0  0  0  0  0  0  0  # atno 4731 bound_to 414 
  -15.1886   16.9572   76.0830 LP  0  0  0  0  0  0  0  0  0  0  0  0  # atno 4732 bound_to 414 
  -12.3888   15.5989   61.5851 LP  0  0  0  0  0  0  0  0  0  0  0  0  # atno 4733 bound_to 1114
  -13.7930   15.3068   60.8043 LP  0  0  0  0  0  0  0  0  0  0  0  0  # atno 4734 bound_to 1114
  -11.8282   15.3100   56.4087 LP  0  0  0  0  0  0  0  0  0  0  0  0  # atno 4763 bound_to 924 
  -11.6455   15.2846   58.0312 LP  0  0  0  0  0  0  0  0  0  0  0  0  # atno 4764 bound_to 924 
  -20.4338   13.6278   64.5763 LP  0  0  0  0  0  0  0  0  0  0  0  0  # atno 4771 bound_to 1244
  -19.9428   13.4506   63.0291 LP  0  0  0  0  0  0  0  0  0  0  0  0  # atno 4772 bound_to 1244
   -6.1455   22.9318   71.3740 LP  0  0  0  0  0  0  0  0  0  0  0  0  # atno 4775 bound_to 178 
   -7.5650   22.5225   72.0700 LP  0  0  0  0  0  0  0  0  0  0  0  0  # atno 4776 bound_to 178 
   -1.8435   24.4500   72.6483 LP  0  0  0  0  0  0  0  0  0  0  0  0  # atno 4779 bound_to 171 
   -2.6965   23.3857   71.7503 LP  0  0  0  0  0  0  0  0  0  0  0  0  # atno 4780 bound_to 171 
   -7.3847   26.6649   63.4292 LP  0  0  0  0  0  0  0  0  0  0  0  0  # atno 4783 bound_to 185 
   -8.7927   26.0669   64.0009 LP  0  0  0  0  0  0  0  0  0  0  0  0  # atno 4784 bound_to 185 
   -2.0803   16.9541   72.6743 LP  0  0  0  0  0  0  0  0  0  0  0  0  # atno 4785 bound_to 346 
   -2.4459   18.4605   73.1879 LP  0  0  0  0  0  0  0  0  0  0  0  0  # atno 4786 bound_to 346 
   -3.0748   20.4972   75.2994 LP  0  0  0  0  0  0  0  0  0  0  0  0  # atno 4787 bound_to 339 
   -2.7520   22.0945   75.4057 LP  0  0  0  0  0  0  0  0  0  0  0  0  # atno 4788 bound_to 339 
   -7.0018   28.4441   65.4624 LP  0  0  0  0  0  0  0  0  0  0  0  0  # atno 4797 bound_to 154 
   -7.3630   29.9592   64.9717 LP  0  0  0  0  0  0  0  0  0  0  0  0  # atno 4798 bound_to 154 

> <Gold.Score>
     Score     S(PLP)   S(hbond)     S(cho)   S(metal)  DE(clash)   DE(tors)     intcor
     41.90     -42.81       0.00       0.00       0.00       0.00       0.48       0.05

> <Gold.PLP.Fitness>
41.8959

> <Gold.PLP.PLP>
-42.8093

> <Gold.PLP.part.hbond>
0.0000

> <Gold.PLP.part.metal>
0.0000

> <Gold.PLP.part.buried>
-7.8847

> <Gold.PLP.part.nonpolar>
-36.0188

> <Gold.PLP.part.repulsive>
0.4368

> <Gold.PLP.ligand.clash>
0.0000

> <Gold.PLP.ligand.torsion>
0.4799

> <Gold.PLP.Chemscore.Hbond>
0.0000

> <Gold.PLP.Chemscore.CHOScore>
0.0000

> <Gold.PLP.Chemscore.Metal>
0.0000

> <Gold.PLP.Chemscore.Internal.Correction>
0.0464

