#       Name:                unknown
#       Creating user name   williammccorkindale
#       Creation time:       Tue Jun  7 14:55:39 2022


#       File generated by GOLD software.
#

@<TRIPOS>MOLECULE
unknown|prepared_Mpro-x1249|mol2|1|dock5
    38    39     1
SMALL
NO_CHARGES


@<TRIPOS>ATOM
      1 O1          -9.1038  15.1683  68.9726 O.2            1 RES1               0.0000
      2 C2          -9.7964  15.7713  68.2044 C.2            1 RES1               0.0000
      3 N3         -11.2843  15.5980  68.2418 N.am           1 RES1               0.0000
      4 C4         -11.8837  14.5786  69.0641 C.3            1 RES1               0.0000
      5 C5         -12.2216  15.1965  70.3709 C.ar           1 RES1               0.0000
      6 C6         -13.2285  14.4406  71.2120 C.ar           1 RES1               0.0000
      7 C7         -13.3714  14.8247  72.5600 C.ar           1 RES1               0.0000
      8 C8         -12.5557  15.9023  73.1438 C.ar           1 RES1               0.0000
      9 C9         -12.5506  16.1997  74.5058 C.1            1 RES1               0.0000
     10 N10        -12.5388  16.3987  75.3881 N.1            1 RES1               0.0000
     11 C11        -11.7301  16.5389  72.2132 C.ar           1 RES1               0.0000
     12 C12        -11.6478  16.1332  70.9267 C.ar           1 RES1               0.0000
     13 N13         -9.5500  16.6963  67.1214 N.am           1 RES1               0.0000
     14 C14         -8.2122  17.3510  67.0256 C.3            1 RES1               0.0000
     15 C15         -8.5187  18.8377  67.1382 C.3            1 RES1               0.0000
     16 O16         -9.7734  19.2229  66.9664 O.3            1 RES1               0.0000
     17 C17        -10.7959  18.4898  66.4555 C.3            1 RES1               0.0000
     18 C18        -10.4936  17.0655  66.1322 C.3            1 RES1               0.0000
     19 H19        -11.8525  16.3171  67.8712 H              1 RES1               0.0000
     20 H20        -11.1438  13.7399  69.2127 H              1 RES1               0.0000
     21 H21        -12.8232  14.1389  68.6664 H              1 RES1               0.0000
     22 H22        -13.7210  13.6545  70.7624 H              1 RES1               0.0000
     23 H23        -14.1002  14.3165  73.0672 H              1 RES1               0.0000
     24 H24        -11.0368  17.3377  72.5459 H              1 RES1               0.0000
     25 H25        -11.0845  16.8316  70.1689 H              1 RES1               0.0000
     26 H26         -7.6143  16.9788  67.8659 H              1 RES1               0.0000
     27 H27         -7.7265  17.0887  66.1178 H              1 RES1               0.0000
     28 H28         -8.2184  19.1395  68.2089 H              1 RES1               0.0000
     29 H29         -7.7216  19.4442  66.5418 H              1 RES1               0.0000
     30 H30        -11.3036  19.0197  65.5060 H              1 RES1               0.0000
     31 H31        -11.7098  18.4742  67.1127 H              1 RES1               0.0000
     32 H32         -9.9149  17.0497  65.1258 H              1 RES1               0.0000
     33 H33        -11.3079  16.4153  66.1283 H              1 RES1               0.0000
     34 ****        -9.5182  14.5490  69.6394 LP             1 RES1               0.0000
     35 ****        -8.1108  15.2841  68.9475 LP             1 RES1               0.0000
     36 ****       -12.5256  16.6186  76.3636 LP             1 RES1               0.0000
     37 ****        -9.7159  20.0286  66.3768 LP             1 RES1               0.0000
     38 ****       -10.0843  19.4973  67.8764 LP             1 RES1               0.0000
@<TRIPOS>BOND
    1    1    2 2     
    2    2    3 am    
    3    3    4 1     
    4    4    5 1     
    5    5    6 ar    
    6    6    7 ar    
    7    7    8 ar    
    8    8    9 1     
    9    9   10 3     
   10    8   11 ar    
   11   11   12 ar    
   12    2   13 am    
   13   13   14 1     
   14   14   15 1     
   15   15   16 1     
   16   16   17 1     
   17   17   18 1     
   18    5   12 ar    
   19   18   13 1     
   20    3   19 1     
   21    4   20 1     
   22    4   21 1     
   23    6   22 1     
   24    7   23 1     
   25   11   24 1     
   26   12   25 1     
   27   14   26 1     
   28   14   27 1     
   29   15   28 1     
   30   15   29 1     
   31   17   30 1     
   32   17   31 1     
   33   18   32 1     
   34   18   33 1     
   35    1   34 1     
   36    1   35 1     
   37   10   36 1     
   38   16   37 1     
   39   16   38 1     
@<TRIPOS>SUBSTRUCTURE
      1 RES1           1
@<TRIPOS>SET
LONE_PAIRS      STATIC     ATOMS    <user>   **** ""
5 34 35 36 37 38
DONOR_HYDROGENS      STATIC     ATOMS    <user>   **** ""
1 19
ATOM$BLUE        STATIC     ATOMS    COLORGROUP SYSTEM
5 34 35 36 37 38
ATOM$RED        STATIC     ATOMS    COLORGROUP SYSTEM
1 19
@<TRIPOS>COMMENT
> <Gold.Version>
2022.1.0

> <Gold.Id.Protein>
6LU7|6LU7_protein|mol2

> <Gold.Protein.RotatedTorsions>
[ 3973 1471 1470 1467 ] final  -16.61 input   60.00 | X-H torsion
[ 3372  414  413  411 ] final   53.09 input   60.00 | X-H torsion
[ 4268 1114 1113 1110 ] final  164.34 input   59.99 | X-H torsion
[ 4409  924  923  921 ] final  118.60 input   59.99 | X-H torsion
[ 4183 1244 1243 1241 ] final  134.38 input   59.99 | X-H torsion
[ 3800  178  177  174 ] final -174.61 input   60.00 | X-H torsion
[ 3793  171  170  167 ] final -109.98 input   60.00 | X-H torsion
[ 3576  185  184  181 ] final   85.32 input   60.00 | X-H torsion
[ 3523  346  345  342 ] final  158.05 input   60.01 | X-H torsion
[ 3515  339  338  335 ] final   31.66 input   60.00 | X-H torsion
[ 3663  154  153  150 ] final   89.66 input   60.00 | X-H torsion
[ 4280 1130 1129 1126 ] final -110.33 input   60.00 | X-H torsion

> <Gold.Protein.ActiveResidues>
 VAL20   THR21   CYS22   GLY23   THR24   THR25   THR26   LEU27   ASN28   PRO39  
 ARG40   HIS41   VAL42   CYS44   THR45   SER46   ASP48   MET49   LEU50   PRO52  
 TYR54   TYR118  ASN119  ILE136  GLY138  SER139  PHE140  LEU141  ASN142  GLY143 
 SER144  CYS145  GLY146  SER147  TYR161  HIS163  HIS164  MET165  GLU166  LEU167 
 PRO168  THR169  GLY170  VAL171  HIS172  ALA173  PHE181  PHE185  VAL186  ASP187 
 ARG188  GLN189  THR190  ALA191  GLN192  ALA193 

> <Gold.Protein.RotatedAtoms>
  -13.8479   18.0027   75.8258 H   0  0  0  0  0  0  0  0  0  0  0  0  # atno 3372 bound_to 414 
   -3.6687   21.2930   74.1760 H   0  0  0  0  0  0  0  0  0  0  0  0  # atno 3515 bound_to 339 
   -1.7879   17.6090   72.9357 H   0  0  0  0  0  0  0  0  0  0  0  0  # atno 3523 bound_to 346 
   -8.1327   26.8031   63.8735 H   0  0  0  0  0  0  0  0  0  0  0  0  # atno 3576 bound_to 185 
   -8.1492   29.8464   64.9922 H   0  0  0  0  0  0  0  0  0  0  0  0  # atno 3663 bound_to 154 
   -2.0849   24.7372   72.7446 H   0  0  0  0  0  0  0  0  0  0  0  0  # atno 3793 bound_to 171 
   -7.6865   22.9166   72.3347 H   0  0  0  0  0  0  0  0  0  0  0  0  # atno 3800 bound_to 178 
  -14.9969    8.4307   76.8381 H   0  0  0  0  0  0  0  0  0  0  0  0  # atno 3973 bound_to 1471
  -20.2375   12.9652   62.8713 H   0  0  0  0  0  0  0  0  0  0  0  0  # atno 4183 bound_to 1244
  -13.6416   15.2326   60.7769 H   0  0  0  0  0  0  0  0  0  0  0  0  # atno 4268 bound_to 1114
  -16.3595   19.3748   57.9593 H   0  0  0  0  0  0  0  0  0  0  0  0  # atno 4280 bound_to 1130
  -10.3914   14.8940   57.1578 H   0  0  0  0  0  0  0  0  0  0  0  0  # atno 4409 bound_to 924 
  -15.3912    8.8612   78.3570 LP  0  0  0  0  0  0  0  0  0  0  0  0  # atno 4696 bound_to 1471
  -15.6487    7.3318   77.8458 LP  0  0  0  0  0  0  0  0  0  0  0  0  # atno 4697 bound_to 1471
  -15.2307   17.9912   74.9680 LP  0  0  0  0  0  0  0  0  0  0  0  0  # atno 4731 bound_to 414 
  -15.0234   16.9422   76.2022 LP  0  0  0  0  0  0  0  0  0  0  0  0  # atno 4732 bound_to 414 
  -13.8728   16.3954   61.8916 LP  0  0  0  0  0  0  0  0  0  0  0  0  # atno 4733 bound_to 1114
  -12.3977   15.7199   61.7060 LP  0  0  0  0  0  0  0  0  0  0  0  0  # atno 4734 bound_to 1114
  -11.7519   15.2861   56.3557 LP  0  0  0  0  0  0  0  0  0  0  0  0  # atno 4763 bound_to 924 
  -11.7279   15.3086   57.9884 LP  0  0  0  0  0  0  0  0  0  0  0  0  # atno 4764 bound_to 924 
  -21.0521   12.5923   64.2297 LP  0  0  0  0  0  0  0  0  0  0  0  0  # atno 4771 bound_to 1244
  -20.0785   13.9027   64.1918 LP  0  0  0  0  0  0  0  0  0  0  0  0  # atno 4772 bound_to 1244
   -6.4869   23.9914   72.1029 LP  0  0  0  0  0  0  0  0  0  0  0  0  # atno 4775 bound_to 178 
   -6.4364   22.5355   71.3652 LP  0  0  0  0  0  0  0  0  0  0  0  0  # atno 4776 bound_to 178 
   -2.3253   23.3893   71.8653 LP  0  0  0  0  0  0  0  0  0  0  0  0  # atno 4779 bound_to 171 
   -3.5555   24.4331   72.1180 LP  0  0  0  0  0  0  0  0  0  0  0  0  # atno 4780 bound_to 171 
   -8.6238   25.2654   63.6682 LP  0  0  0  0  0  0  0  0  0  0  0  0  # atno 4783 bound_to 185 
   -7.1937   25.7579   63.0528 LP  0  0  0  0  0  0  0  0  0  0  0  0  # atno 4784 bound_to 185 
   -3.2043   18.3924   73.1035 LP  0  0  0  0  0  0  0  0  0  0  0  0  # atno 4785 bound_to 346 
   -3.1783   16.8555   72.5522 LP  0  0  0  0  0  0  0  0  0  0  0  0  # atno 4786 bound_to 346 
   -2.9522   20.6044   75.4646 LP  0  0  0  0  0  0  0  0  0  0  0  0  # atno 4787 bound_to 339 
   -2.8438   22.2170   75.2315 LP  0  0  0  0  0  0  0  0  0  0  0  0  # atno 4788 bound_to 339 
   -8.0728   28.2974   65.4849 LP  0  0  0  0  0  0  0  0  0  0  0  0  # atno 4797 bound_to 154 
   -6.7006   29.1494   65.2446 LP  0  0  0  0  0  0  0  0  0  0  0  0  # atno 4798 bound_to 154 

> <Gold.Score>
     Score     S(PLP)   S(hbond)     S(cho)   S(metal)  DE(clash)   DE(tors)     intcor
     47.79     -48.12       0.41       0.00       0.00       2.20       0.60       1.82

> <Gold.PLP.Fitness>
47.7867

> <Gold.PLP.PLP>
-48.1247

> <Gold.PLP.part.hbond>
-1.0000

> <Gold.PLP.part.metal>
0.0000

> <Gold.PLP.part.buried>
-6.9309

> <Gold.PLP.part.nonpolar>
-41.5946

> <Gold.PLP.part.repulsive>
0.3268

> <Gold.PLP.ligand.clash>
2.2035

> <Gold.PLP.ligand.torsion>
0.6009

> <Gold.PLP.Chemscore.Hbond>
0.4142

> <Gold.PLP.Chemscore.CHOScore>
0.0000

> <Gold.PLP.Chemscore.Metal>
0.0000

> <Gold.Chemscore.Hbonds>
donor molecule, donor type, donor heavy atom, donor atom, acceptor molecule, acceptor atom, score
      P1  H   414  3372       L1    10  0.41

> <Gold.PLP.Chemscore.Internal.Correction>
1.8248

