#       Name:                unknown
#       Creating user name   williammccorkindale
#       Creation time:       Tue Jun  7 14:55:36 2022


#       File generated by GOLD software.
#

@<TRIPOS>MOLECULE
unknown|prepared_Mpro-x0195|mol2|1|dock1
    30    31     1
SMALL
NO_CHARGES


@<TRIPOS>ATOM
      1 C1         -11.6766  15.9825  70.7069 C.3            1 RES1               0.0000
      2 N2         -12.5816  14.9237  71.0400 N.pl3          1 RES1               0.0000
      3 C3         -13.6689  15.2030  71.9755 C.3            1 RES1               0.0000
      4 C4         -14.3997  13.9369  72.3568 C.3            1 RES1               0.0000
      5 C5         -13.4615  12.7717  72.5003 C.3            1 RES1               0.0000
      6 C6         -12.8535  12.5082  71.1713 C.ar           1 RES1               0.0000
      7 C7         -12.7044  11.2681  70.6324 C.ar           1 RES1               0.0000
      8 C8         -12.1220  11.1437  69.3891 C.ar           1 RES1               0.0000
      9 C9         -11.6891  12.2464  68.6832 C.ar           1 RES1               0.0000
     10 C10        -11.8417  13.4965  69.2315 C.ar           1 RES1               0.0000
     11 C11        -12.4201  13.6244  70.4669 C.ar           1 RES1               0.0000
     12 S12        -10.9527  12.1113  67.1155 S.o2           1 RES1               0.0000
     13 O13        -12.0014  11.9999  66.0604 O.2            1 RES1               0.0000
     14 O14        -10.1481  13.3589  66.8140 O.2            1 RES1               0.0000
     15 N15         -9.8988  10.7477  67.0625 N.3            1 RES1               0.0000
     16 H16        -11.4100  16.5131  71.6452 H              1 RES1               0.0000
     17 H17        -12.1474  16.7355  70.0150 H              1 RES1               0.0000
     18 H18        -10.7298  15.6341  70.2572 H              1 RES1               0.0000
     19 H19        -14.3983  15.9082  71.5297 H              1 RES1               0.0000
     20 H20        -13.2958  15.6597  72.9121 H              1 RES1               0.0000
     21 H21        -14.9499  14.0851  73.2918 H              1 RES1               0.0000
     22 H22        -15.1304  13.7038  71.5617 H              1 RES1               0.0000
     23 H23        -14.0290  11.9080  72.8919 H              1 RES1               0.0000
     24 H24        -12.6400  13.0817  73.1795 H              1 RES1               0.0000
     25 H25        -13.0524  10.4216  71.2070 H              1 RES1               0.0000
     26 H26        -12.0092  10.1577  68.9724 H              1 RES1               0.0000
     27 H27        -11.5199  14.4037  68.7257 H              1 RES1               0.0000
     28 H28         -9.1136  10.8893  66.4218 H              1 RES1               0.0000
     29 H29        -10.4661   9.9415  66.7206 H              1 RES1               0.0000
     30 ****        -9.5164  10.5932  67.9734 LP             1 RES1               0.0000
@<TRIPOS>BOND
    1    1    2 1     
    2    2    3 1     
    3    3    4 1     
    4    4    5 1     
    5    5    6 1     
    6    6    7 ar    
    7    7    8 ar    
    8    8    9 ar    
    9    9   10 ar    
   10   10   11 ar    
   11    9   12 1     
   12   12   13 2     
   13   12   14 2     
   14   12   15 1     
   15   11    2 1     
   16    6   11 ar    
   17    1   16 1     
   18    1   17 1     
   19    1   18 1     
   20    3   19 1     
   21    3   20 1     
   22    4   21 1     
   23    4   22 1     
   24    5   23 1     
   25    5   24 1     
   26    7   25 1     
   27    8   26 1     
   28   10   27 1     
   29   15   28 1     
   30   15   29 1     
   31   15   30 1     
@<TRIPOS>SUBSTRUCTURE
      1 RES1           1
@<TRIPOS>SET
LONE_PAIRS      STATIC     ATOMS    <user>   **** ""
3 13 14 30
DONOR_HYDROGENS      STATIC     ATOMS    <user>   **** ""
2 28 29
ATOM$BLUE        STATIC     ATOMS    COLORGROUP SYSTEM
3 13 14 30
ATOM$RED        STATIC     ATOMS    COLORGROUP SYSTEM
2 28 29
@<TRIPOS>COMMENT
> <Gold.Version>
2022.1.0

> <Gold.Id.Protein>
6LU7|6LU7_protein|mol2

> <Gold.Protein.RotatedTorsions>
[ 3973 1471 1470 1467 ] final -128.05 input   60.00 | X-H torsion
[ 3372  414  413  411 ] final   45.34 input   60.00 | X-H torsion
[ 4268 1114 1113 1110 ] final   75.81 input   59.99 | X-H torsion
[ 4409  924  923  921 ] final   11.56 input   59.99 | X-H torsion
[ 4183 1244 1243 1241 ] final  151.40 input   59.99 | X-H torsion
[ 3800  178  177  174 ] final   45.83 input   60.00 | X-H torsion
[ 3793  171  170  167 ] final -170.37 input   60.00 | X-H torsion
[ 3576  185  184  181 ] final  105.46 input   60.00 | X-H torsion
[ 3523  346  345  342 ] final -158.04 input   60.01 | X-H torsion
[ 3515  339  338  335 ] final  -18.45 input   60.00 | X-H torsion
[ 3663  154  153  150 ] final  103.55 input   60.00 | X-H torsion
[ 4280 1130 1129 1126 ] final   12.05 input   60.00 | X-H torsion

> <Gold.Protein.ActiveResidues>
 VAL20   THR21   CYS22   GLY23   THR24   THR25   THR26   LEU27   ASN28   PRO39  
 ARG40   HIS41   VAL42   CYS44   THR45   SER46   ASP48   MET49   LEU50   PRO52  
 TYR54   TYR118  ASN119  ILE136  GLY138  SER139  PHE140  LEU141  ASN142  GLY143 
 SER144  CYS145  GLY146  SER147  TYR161  HIS163  HIS164  MET165  GLU166  LEU167 
 PRO168  THR169  GLY170  VAL171  HIS172  ALA173  PHE181  PHE185  VAL186  ASP187 
 ARG188  GLN189  THR190  ALA191  GLN192  ALA193 

> <Gold.Protein.RotatedAtoms>
  -13.8717   18.0805   75.7289 H   0  0  0  0  0  0  0  0  0  0  0  0  # atno 3372 bound_to 414 
   -3.5329   20.6118   74.5585 H   0  0  0  0  0  0  0  0  0  0  0  0  # atno 3515 bound_to 339 
   -2.0385   17.0006   72.6968 H   0  0  0  0  0  0  0  0  0  0  0  0  # atno 3523 bound_to 346 
   -7.8414   26.8478   63.7313 H   0  0  0  0  0  0  0  0  0  0  0  0  # atno 3576 bound_to 185 
   -7.9454   29.9419   64.9664 H   0  0  0  0  0  0  0  0  0  0  0  0  # atno 3663 bound_to 154 
   -1.7594   23.9394   72.3647 H   0  0  0  0  0  0  0  0  0  0  0  0  # atno 3793 bound_to 171 
   -6.2719   23.8653   71.9033 H   0  0  0  0  0  0  0  0  0  0  0  0  # atno 3800 bound_to 178 
  -15.3326    8.9427   78.2589 H   0  0  0  0  0  0  0  0  0  0  0  0  # atno 3973 bound_to 1471
  -20.0837   13.1934   62.9039 H   0  0  0  0  0  0  0  0  0  0  0  0  # atno 4183 bound_to 1244
  -14.1585   16.1554   61.5445 H   0  0  0  0  0  0  0  0  0  0  0  0  # atno 4268 bound_to 1114
  -15.9796   20.3272   59.2399 H   0  0  0  0  0  0  0  0  0  0  0  0  # atno 4280 bound_to 1130
  -11.5636   15.2303   56.2752 H   0  0  0  0  0  0  0  0  0  0  0  0  # atno 4409 bound_to 924 
  -15.6792    7.3784   77.9750 LP  0  0  0  0  0  0  0  0  0  0  0  0  # atno 4696 bound_to 1471
  -15.0225    8.2990   76.7969 LP  0  0  0  0  0  0  0  0  0  0  0  0  # atno 4697 bound_to 1471
  -15.3179   17.9054   75.0037 LP  0  0  0  0  0  0  0  0  0  0  0  0  # atno 4731 bound_to 414 
  -14.9122   16.9496   76.2640 LP  0  0  0  0  0  0  0  0  0  0  0  0  # atno 4732 bound_to 414 
  -12.5999   16.0810   62.0063 LP  0  0  0  0  0  0  0  0  0  0  0  0  # atno 4733 bound_to 1114
  -13.1500   15.1050   60.8183 LP  0  0  0  0  0  0  0  0  0  0  0  0  # atno 4734 bound_to 1114
  -11.8935   15.3561   57.8637 LP  0  0  0  0  0  0  0  0  0  0  0  0  # atno 4763 bound_to 924 
  -10.4055   14.8998   57.3695 LP  0  0  0  0  0  0  0  0  0  0  0  0  # atno 4764 bound_to 924 
  -21.0522   12.4579   63.9851 LP  0  0  0  0  0  0  0  0  0  0  0  0  # atno 4771 bound_to 1244
  -20.2332   13.8073   64.4035 LP  0  0  0  0  0  0  0  0  0  0  0  0  # atno 4772 bound_to 1244
   -6.6944   22.3625   71.4438 LP  0  0  0  0  0  0  0  0  0  0  0  0  # atno 4775 bound_to 178 
   -7.6536   23.2090   72.4587 LP  0  0  0  0  0  0  0  0  0  0  0  0  # atno 4776 bound_to 178 
   -3.2316   23.6392   71.7399 LP  0  0  0  0  0  0  0  0  0  0  0  0  # atno 4779 bound_to 171 
   -2.9770   24.9869   72.6261 LP  0  0  0  0  0  0  0  0  0  0  0  0  # atno 4780 bound_to 171 
   -8.7718   25.5159   63.8231 LP  0  0  0  0  0  0  0  0  0  0  0  0  # atno 4783 bound_to 185 
   -7.3392   25.4624   63.0411 LP  0  0  0  0  0  0  0  0  0  0  0  0  # atno 4784 bound_to 185 
   -2.5098   18.4782   73.1892 LP  0  0  0  0  0  0  0  0  0  0  0  0  # atno 4785 bound_to 346 
   -3.6204   17.3824   72.7071 LP  0  0  0  0  0  0  0  0  0  0  0  0  # atno 4786 bound_to 346 
   -2.6589   21.2892   75.7524 LP  0  0  0  0  0  0  0  0  0  0  0  0  # atno 4787 bound_to 339 
   -3.2738   22.2183   74.5584 LP  0  0  0  0  0  0  0  0  0  0  0  0  # atno 4788 bound_to 339 
   -8.2615   28.4181   65.4422 LP  0  0  0  0  0  0  0  0  0  0  0  0  # atno 4797 bound_to 154 
   -6.7170   28.9325   65.3133 LP  0  0  0  0  0  0  0  0  0  0  0  0  # atno 4798 bound_to 154 

> <Gold.Score>
     Score     S(PLP)   S(hbond)     S(cho)   S(metal)  DE(clash)   DE(tors)     intcor
     40.37     -40.45       0.00       0.00       0.00       0.00       1.13       2.19

> <Gold.PLP.Fitness>
40.3705

> <Gold.PLP.PLP>
-40.4475

> <Gold.PLP.part.hbond>
-0.7467

> <Gold.PLP.part.metal>
0.0000

> <Gold.PLP.part.buried>
-5.2196

> <Gold.PLP.part.nonpolar>
-35.4373

> <Gold.PLP.part.repulsive>
0.0869

> <Gold.PLP.ligand.clash>
0.0000

> <Gold.PLP.ligand.torsion>
1.1347

> <Gold.PLP.Chemscore.Hbond>
0.0000

> <Gold.PLP.Chemscore.CHOScore>
0.0000

> <Gold.PLP.Chemscore.Metal>
0.0000

> <Gold.PLP.Chemscore.Internal.Correction>
2.1923

