#       Name:                unknown
#       Creating user name   williammccorkindale
#       Creation time:       Tue Jun  7 14:55:36 2022


#       File generated by GOLD software.
#

@<TRIPOS>MOLECULE
unknown|prepared_Mpro-x0195|mol2|1|dock3
    30    31     1
SMALL
NO_CHARGES


@<TRIPOS>ATOM
      1 C1         -14.2285  13.0635  72.3973 C.3            1 RES1               0.0000
      2 N2         -13.1482  14.0031  72.4342 N.pl3          1 RES1               0.0000
      3 C3         -12.9004  14.7335  73.6754 C.3            1 RES1               0.0000
      4 C4         -11.8588  15.8096  73.4768 C.3            1 RES1               0.0000
      5 C5         -11.9914  16.4750  72.1359 C.3            1 RES1               0.0000
      6 C6         -11.7279  15.4534  71.0907 C.ar           1 RES1               0.0000
      7 C7         -10.9503  15.6653  69.9949 C.ar           1 RES1               0.0000
      8 C8         -10.7783  14.6418  69.0875 C.ar           1 RES1               0.0000
      9 C9         -11.3761  13.4122  69.2673 C.ar           1 RES1               0.0000
     10 C10        -12.1605  13.2029  70.3753 C.ar           1 RES1               0.0000
     11 C11        -12.3338  14.2176  71.2795 C.ar           1 RES1               0.0000
     12 S12        -11.1723  12.1095  68.1360 S.o2           1 RES1               0.0000
     13 O13         -9.9017  11.3789  68.4135 O.2            1 RES1               0.0000
     14 O14        -12.3022  11.1122  68.2883 O.2            1 RES1               0.0000
     15 N15        -11.1798  12.7108  66.5200 N.3            1 RES1               0.0000
     16 H16        -15.1064  13.5314  72.8904 H              1 RES1               0.0000
     17 H17        -13.9853  12.1213  72.9634 H              1 RES1               0.0000
     18 H18        -14.5451  12.7889  71.3753 H              1 RES1               0.0000
     19 H19        -12.5479  14.0469  74.4707 H              1 RES1               0.0000
     20 H20        -13.8166  15.2301  74.0480 H              1 RES1               0.0000
     21 H21        -11.9348  16.5601  74.2704 H              1 RES1               0.0000
     22 H22        -10.8595  15.3429  73.5402 H              1 RES1               0.0000
     23 H23        -11.2867  17.3252  72.0927 H              1 RES1               0.0000
     24 H24        -13.0482  16.7947  72.0208 H              1 RES1               0.0000
     25 H25        -10.4939  16.6380  69.8789 H              1 RES1               0.0000
     26 H26        -10.1609  14.8207  68.2242 H              1 RES1               0.0000
     27 H27        -12.6592  12.2570  70.5726 H              1 RES1               0.0000
     28 H28        -12.1131  13.0041  66.2198 H              1 RES1               0.0000
     29 H29        -10.8631  11.9290  65.9060 H              1 RES1               0.0000
     30 ****       -10.5836  13.5118  66.4654 LP             1 RES1               0.0000
@<TRIPOS>BOND
    1    1    2 1     
    2    2    3 1     
    3    3    4 1     
    4    4    5 1     
    5    5    6 1     
    6    6    7 ar    
    7    7    8 ar    
    8    8    9 ar    
    9    9   10 ar    
   10   10   11 ar    
   11    9   12 1     
   12   12   13 2     
   13   12   14 2     
   14   12   15 1     
   15   11    2 1     
   16    6   11 ar    
   17    1   16 1     
   18    1   17 1     
   19    1   18 1     
   20    3   19 1     
   21    3   20 1     
   22    4   21 1     
   23    4   22 1     
   24    5   23 1     
   25    5   24 1     
   26    7   25 1     
   27    8   26 1     
   28   10   27 1     
   29   15   28 1     
   30   15   29 1     
   31   15   30 1     
@<TRIPOS>SUBSTRUCTURE
      1 RES1           1
@<TRIPOS>SET
LONE_PAIRS      STATIC     ATOMS    <user>   **** ""
3 13 14 30
DONOR_HYDROGENS      STATIC     ATOMS    <user>   **** ""
2 28 29
ATOM$BLUE        STATIC     ATOMS    COLORGROUP SYSTEM
3 13 14 30
ATOM$RED        STATIC     ATOMS    COLORGROUP SYSTEM
2 28 29
@<TRIPOS>COMMENT
> <Gold.Version>
2022.1.0

> <Gold.Id.Protein>
6LU7|6LU7_protein|mol2

> <Gold.Protein.RotatedTorsions>
[ 3973 1471 1470 1467 ] final -129.60 input   60.00 | X-H torsion
[ 3372  414  413  411 ] final   89.42 input   60.00 | X-H torsion
[ 4268 1114 1113 1110 ] final   85.91 input   59.99 | X-H torsion
[ 4409  924  923  921 ] final   87.61 input   59.99 | X-H torsion
[ 4183 1244 1243 1241 ] final  171.06 input   59.99 | X-H torsion
[ 3800  178  177  174 ] final   62.76 input   60.00 | X-H torsion
[ 3793  171  170  167 ] final -107.90 input   60.00 | X-H torsion
[ 3576  185  184  181 ] final -145.33 input   60.00 | X-H torsion
[ 3523  346  345  342 ] final   41.65 input   60.01 | X-H torsion
[ 3515  339  338  335 ] final -125.52 input   60.00 | X-H torsion
[ 3663  154  153  150 ] final  -53.89 input   60.00 | X-H torsion
[ 4280 1130 1129 1126 ] final  128.54 input   60.00 | X-H torsion

> <Gold.Protein.ActiveResidues>
 VAL20   THR21   CYS22   GLY23   THR24   THR25   THR26   LEU27   ASN28   PRO39  
 ARG40   HIS41   VAL42   CYS44   THR45   SER46   ASP48   MET49   LEU50   PRO52  
 TYR54   TYR118  ASN119  ILE136  GLY138  SER139  PHE140  LEU141  ASN142  GLY143 
 SER144  CYS145  GLY146  SER147  TYR161  HIS163  HIS164  MET165  GLU166  LEU167 
 PRO168  THR169  GLY170  VAL171  HIS172  ALA173  PHE181  PHE185  VAL186  ASP187 
 ARG188  GLN189  THR190  ALA191  GLN192  ALA193 

> <Gold.Protein.RotatedAtoms>
  -13.9430   17.5774   76.2140 H   0  0  0  0  0  0  0  0  0  0  0  0  # atno 3372 bound_to 414 
   -2.7102   21.0853   75.7274 H   0  0  0  0  0  0  0  0  0  0  0  0  # atno 3515 bound_to 339 
   -3.1497   18.4119   73.1174 H   0  0  0  0  0  0  0  0  0  0  0  0  # atno 3523 bound_to 346 
   -7.2542   25.6173   63.0453 H   0  0  0  0  0  0  0  0  0  0  0  0  # atno 3576 bound_to 185 
   -7.7016   28.2093   65.5237 H   0  0  0  0  0  0  0  0  0  0  0  0  # atno 3663 bound_to 154 
   -2.1108   24.7586   72.7495 H   0  0  0  0  0  0  0  0  0  0  0  0  # atno 3793 bound_to 171 
   -6.4582   23.9756   72.0742 H   0  0  0  0  0  0  0  0  0  0  0  0  # atno 3800 bound_to 178 
  -15.3428    8.9282   78.2769 H   0  0  0  0  0  0  0  0  0  0  0  0  # atno 3973 bound_to 1471
  -19.9476   13.4512   63.0345 H   0  0  0  0  0  0  0  0  0  0  0  0  # atno 4183 bound_to 1244
  -14.2005   16.0515   61.4236 H   0  0  0  0  0  0  0  0  0  0  0  0  # atno 4268 bound_to 1114
  -15.5667   18.7897   59.2587 H   0  0  0  0  0  0  0  0  0  0  0  0  # atno 4280 bound_to 1130
  -10.5264   14.9259   56.6772 H   0  0  0  0  0  0  0  0  0  0  0  0  # atno 4409 bound_to 924 
  -15.6742    7.3685   77.9520 LP  0  0  0  0  0  0  0  0  0  0  0  0  # atno 4696 bound_to 1471
  -15.0173    8.3234   76.8017 LP  0  0  0  0  0  0  0  0  0  0  0  0  # atno 4697 bound_to 1471
  -14.7229   18.2871   74.9746 LP  0  0  0  0  0  0  0  0  0  0  0  0  # atno 4731 bound_to 414 
  -15.4355   17.0747   75.8046 LP  0  0  0  0  0  0  0  0  0  0  0  0  # atno 4732 bound_to 414 
  -12.7137   16.1828   62.0716 LP  0  0  0  0  0  0  0  0  0  0  0  0  # atno 4733 bound_to 1114
  -12.9938   15.1078   60.8747 LP  0  0  0  0  0  0  0  0  0  0  0  0  # atno 4734 bound_to 1114
  -12.0847   15.3927   56.7186 LP  0  0  0  0  0  0  0  0  0  0  0  0  # atno 4763 bound_to 924 
  -11.2590   15.1699   58.1096 LP  0  0  0  0  0  0  0  0  0  0  0  0  # atno 4764 bound_to 924 
  -20.9876   12.3789   63.6800 LP  0  0  0  0  0  0  0  0  0  0  0  0  # atno 4771 bound_to 1244
  -20.4351   13.6265   64.5771 LP  0  0  0  0  0  0  0  0  0  0  0  0  # atno 4772 bound_to 1244
   -6.4688   22.5076   71.3720 LP  0  0  0  0  0  0  0  0  0  0  0  0  # atno 4775 bound_to 178 
   -7.6916   22.9529   72.3585 LP  0  0  0  0  0  0  0  0  0  0  0  0  # atno 4776 bound_to 178 
   -2.2947   23.3963   71.8788 LP  0  0  0  0  0  0  0  0  0  0  0  0  # atno 4779 bound_to 171 
   -3.5600   24.4047   72.0995 LP  0  0  0  0  0  0  0  0  0  0  0  0  # atno 4780 bound_to 171 
   -7.9987   26.8445   63.8117 LP  0  0  0  0  0  0  0  0  0  0  0  0  # atno 4783 bound_to 185 
   -8.7036   25.3731   63.7434 LP  0  0  0  0  0  0  0  0  0  0  0  0  # atno 4784 bound_to 185 
   -3.2291   16.8855   72.5590 LP  0  0  0  0  0  0  0  0  0  0  0  0  # atno 4785 bound_to 346 
   -1.7820   17.5539   72.9138 LP  0  0  0  0  0  0  0  0  0  0  0  0  # atno 4786 bound_to 346 
   -3.1578   22.2850   74.7233 LP  0  0  0  0  0  0  0  0  0  0  0  0  # atno 4787 bound_to 339 
   -3.6035   20.7456   74.4103 LP  0  0  0  0  0  0  0  0  0  0  0  0  # atno 4788 bound_to 339 
   -6.7974   29.5036   65.1296 LP  0  0  0  0  0  0  0  0  0  0  0  0  # atno 4797 bound_to 154 
   -8.4267   29.5919   65.0646 LP  0  0  0  0  0  0  0  0  0  0  0  0  # atno 4798 bound_to 154 

> <Gold.Score>
     Score     S(PLP)   S(hbond)     S(cho)   S(metal)  DE(clash)   DE(tors)     intcor
     43.50     -40.57       1.00       0.00       0.00       0.00       1.13       2.19

> <Gold.PLP.Fitness>
43.4958

> <Gold.PLP.PLP>
-40.5713

> <Gold.PLP.part.hbond>
-1.0000

> <Gold.PLP.part.metal>
0.0000

> <Gold.PLP.part.buried>
-5.4259

> <Gold.PLP.part.nonpolar>
-35.1758

> <Gold.PLP.part.repulsive>
0.1757

> <Gold.PLP.ligand.clash>
0.0000

> <Gold.PLP.ligand.torsion>
1.1339

> <Gold.PLP.Chemscore.Hbond>
1.0000

> <Gold.PLP.Chemscore.CHOScore>
0.0000

> <Gold.PLP.Chemscore.Metal>
0.0000

> <Gold.Chemscore.Hbonds>
donor molecule, donor type, donor heavy atom, donor atom, acceptor molecule, acceptor atom, score
      P1  H  1281  4132       L1    14  1.00

> <Gold.PLP.Chemscore.Internal.Correction>
2.1923

