#       Name:                unknown
#       Creating user name   williammccorkindale
#       Creation time:       Tue Jun  7 14:55:38 2022


#       File generated by GOLD software.
#

@<TRIPOS>MOLECULE
unknown|prepared_Mpro-x1249|mol2|1|dock1
    38    39     1
SMALL
NO_CHARGES


@<TRIPOS>ATOM
      1 O1          -9.5956  15.6109  66.6789 O.2            1 RES1               0.0000
      2 C2         -10.0813  16.6024  67.1421 C.2            1 RES1               0.0000
      3 N3         -11.1985  16.4964  68.1349 N.am           1 RES1               0.0000
      4 C4         -11.8230  15.2267  68.4038 C.3            1 RES1               0.0000
      5 C5         -11.9806  15.1060  69.8750 C.ar           1 RES1               0.0000
      6 C6         -10.8047  15.5831  70.7010 C.ar           1 RES1               0.0000
      7 C7         -11.0063  15.7537  72.0849 C.ar           1 RES1               0.0000
      8 C8         -12.3170  15.5056  72.7080 C.ar           1 RES1               0.0000
      9 C9         -12.5987  15.8183  74.0371 C.1            1 RES1               0.0000
     10 N10        -12.7901  16.0150  74.8990 N.1            1 RES1               0.0000
     11 C11        -13.2689  15.0045  71.8160 C.ar           1 RES1               0.0000
     12 C12        -13.0100  14.8480  70.4989 C.ar           1 RES1               0.0000
     13 N13         -9.8719  18.0206  66.9575 N.am           1 RES1               0.0000
     14 C14         -8.5697  18.4882  66.3979 C.3            1 RES1               0.0000
     15 C15         -7.9940  19.3760  67.4921 C.3            1 RES1               0.0000
     16 O16         -8.8130  19.7857  68.4478 O.3            1 RES1               0.0000
     17 C17        -10.1694  19.7208  68.4519 C.3            1 RES1               0.0000
     18 C18        -10.8038  19.0337  67.2900 C.3            1 RES1               0.0000
     19 H19        -11.3550  17.2531  68.7516 H              1 RES1               0.0000
     20 H20        -11.1614  14.3989  68.0166 H              1 RES1               0.0000
     21 H21        -12.8335  15.0911  67.9623 H              1 RES1               0.0000
     22 H22         -9.9330  15.8014  70.1959 H              1 RES1               0.0000
     23 H23        -10.1669  16.0273  72.6018 H              1 RES1               0.0000
     24 H24        -14.3063  14.8209  72.1616 H              1 RES1               0.0000
     25 H25        -13.7887  14.2472  69.8570 H              1 RES1               0.0000
     26 H26         -7.9614  17.5942  66.2165 H              1 RES1               0.0000
     27 H27         -8.7144  18.9961  65.4760 H              1 RES1               0.0000
     28 H28         -7.1697  18.7519  68.0009 H              1 RES1               0.0000
     29 H29         -7.3310  20.2050  67.0101 H              1 RES1               0.0000
     30 H30        -10.6744  20.7981  68.6080 H              1 RES1               0.0000
     31 H31        -10.5931  19.2325  69.3735 H              1 RES1               0.0000
     32 H32        -10.7933  19.7746  66.3961 H              1 RES1               0.0000
     33 H33        -11.7508  18.6328  67.4579 H              1 RES1               0.0000
     34 ****        -9.9356  14.7118  66.9547 LP             1 RES1               0.0000
     35 ****        -8.8500  15.6818  66.0163 LP             1 RES1               0.0000
     36 ****       -13.0017  16.2325  75.8518 LP             1 RES1               0.0000
     37 ****        -8.6023  20.7559  68.5677 LP             1 RES1               0.0000
     38 ****        -8.5297  19.2800  69.2627 LP             1 RES1               0.0000
@<TRIPOS>BOND
    1    1    2 2     
    2    2    3 am    
    3    3    4 1     
    4    4    5 1     
    5    5    6 ar    
    6    6    7 ar    
    7    7    8 ar    
    8    8    9 1     
    9    9   10 3     
   10    8   11 ar    
   11   11   12 ar    
   12    2   13 am    
   13   13   14 1     
   14   14   15 1     
   15   15   16 1     
   16   16   17 1     
   17   17   18 1     
   18    5   12 ar    
   19   18   13 1     
   20    3   19 1     
   21    4   20 1     
   22    4   21 1     
   23    6   22 1     
   24    7   23 1     
   25   11   24 1     
   26   12   25 1     
   27   14   26 1     
   28   14   27 1     
   29   15   28 1     
   30   15   29 1     
   31   17   30 1     
   32   17   31 1     
   33   18   32 1     
   34   18   33 1     
   35    1   34 1     
   36    1   35 1     
   37   10   36 1     
   38   16   37 1     
   39   16   38 1     
@<TRIPOS>SUBSTRUCTURE
      1 RES1           1
@<TRIPOS>SET
LONE_PAIRS      STATIC     ATOMS    <user>   **** ""
5 34 35 36 37 38
DONOR_HYDROGENS      STATIC     ATOMS    <user>   **** ""
1 19
ATOM$BLUE        STATIC     ATOMS    COLORGROUP SYSTEM
5 34 35 36 37 38
ATOM$RED        STATIC     ATOMS    COLORGROUP SYSTEM
1 19
@<TRIPOS>COMMENT
> <Gold.Version>
2022.1.0

> <Gold.Id.Protein>
6LU7|6LU7_protein|mol2

> <Gold.Protein.RotatedTorsions>
[ 3973 1471 1470 1467 ] final -160.20 input   60.00 | X-H torsion
[ 3372  414  413  411 ] final -148.78 input   60.00 | X-H torsion
[ 4268 1114 1113 1110 ] final  129.58 input   59.99 | X-H torsion
[ 4409  924  923  921 ] final -174.58 input   59.99 | X-H torsion
[ 4183 1244 1243 1241 ] final  -97.89 input   59.99 | X-H torsion
[ 3800  178  177  174 ] final  -41.16 input   60.00 | X-H torsion
[ 3793  171  170  167 ] final   83.47 input   60.00 | X-H torsion
[ 3576  185  184  181 ] final  142.25 input   60.00 | X-H torsion
[ 3523  346  345  342 ] final   33.02 input   60.01 | X-H torsion
[ 3515  339  338  335 ] final  126.10 input   60.00 | X-H torsion
[ 3663  154  153  150 ] final -125.18 input   60.00 | X-H torsion
[ 4280 1130 1129 1126 ] final   80.82 input   60.00 | X-H torsion

> <Gold.Protein.ActiveResidues>
 VAL20   THR21   CYS22   GLY23   THR24   THR25   THR26   LEU27   ASN28   PRO39  
 ARG40   HIS41   VAL42   CYS44   THR45   SER46   ASP48   MET49   LEU50   PRO52  
 TYR54   TYR118  ASN119  ILE136  GLY138  SER139  PHE140  LEU141  ASN142  GLY143 
 SER144  CYS145  GLY146  SER147  TYR161  HIS163  HIS164  MET165  GLU166  LEU167 
 PRO168  THR169  GLY170  VAL171  HIS172  ALA173  PHE181  PHE185  VAL186  ASP187 
 ARG188  GLN189  THR190  ALA191  GLN192  ALA193 

> <Gold.Protein.RotatedAtoms>
  -15.4451   17.0934   75.7826 H   0  0  0  0  0  0  0  0  0  0  0  0  # atno 3372 bound_to 414 
   -3.0559   22.2993   74.8835 H   0  0  0  0  0  0  0  0  0  0  0  0  # atno 3515 bound_to 339 
   -3.2694   18.3454   73.0840 H   0  0  0  0  0  0  0  0  0  0  0  0  # atno 3523 bound_to 346 
   -7.3777   26.6494   63.4235 H   0  0  0  0  0  0  0  0  0  0  0  0  # atno 3576 bound_to 185 
   -6.7764   28.7663   65.3672 H   0  0  0  0  0  0  0  0  0  0  0  0  # atno 3663 bound_to 154 
   -3.0425   23.5159   71.7206 H   0  0  0  0  0  0  0  0  0  0  0  0  # atno 3793 bound_to 171 
   -6.2918   22.7009   71.3514 H   0  0  0  0  0  0  0  0  0  0  0  0  # atno 3800 bound_to 178 
  -15.5346    8.5492   78.5293 H   0  0  0  0  0  0  0  0  0  0  0  0  # atno 3973 bound_to 1471
  -20.1494   13.8635   64.2893 H   0  0  0  0  0  0  0  0  0  0  0  0  # atno 4183 bound_to 1244
  -14.0636   15.5515   60.9587 H   0  0  0  0  0  0  0  0  0  0  0  0  # atno 4268 bound_to 1114
  -15.5525   19.4454   59.6375 H   0  0  0  0  0  0  0  0  0  0  0  0  # atno 4280 bound_to 1130
  -10.9223   15.0694   58.0239 H   0  0  0  0  0  0  0  0  0  0  0  0  # atno 4409 bound_to 924 
  -15.5321    7.3061   77.4792 LP  0  0  0  0  0  0  0  0  0  0  0  0  # atno 4696 bound_to 1471
  -14.9662    8.7676   77.0203 LP  0  0  0  0  0  0  0  0  0  0  0  0  # atno 4697 bound_to 1471
  -13.9500   17.5533   76.2312 LP  0  0  0  0  0  0  0  0  0  0  0  0  # atno 4731 bound_to 414 
  -14.6956   18.2959   74.9825 LP  0  0  0  0  0  0  0  0  0  0  0  0  # atno 4732 bound_to 414 
  -13.3610   16.4479   62.1209 LP  0  0  0  0  0  0  0  0  0  0  0  0  # atno 4733 bound_to 1114
  -12.4844   15.3462   61.2936 LP  0  0  0  0  0  0  0  0  0  0  0  0  # atno 4734 bound_to 1114
  -10.7585   14.9884   56.4070 LP  0  0  0  0  0  0  0  0  0  0  0  0  # atno 4763 bound_to 924 
  -12.1865   15.4296   57.0649 LP  0  0  0  0  0  0  0  0  0  0  0  0  # atno 4764 bound_to 924 
  -20.1606   13.0660   62.8709 LP  0  0  0  0  0  0  0  0  0  0  0  0  # atno 4771 bound_to 1244
  -21.0588   12.5243   64.1225 LP  0  0  0  0  0  0  0  0  0  0  0  0  # atno 4772 bound_to 1244
   -7.6619   22.7249   72.2292 LP  0  0  0  0  0  0  0  0  0  0  0  0  # atno 4775 bound_to 178 
   -6.6660   24.0191   72.2292 LP  0  0  0  0  0  0  0  0  0  0  0  0  # atno 4776 bound_to 178 
   -3.1716   24.9226   72.5284 LP  0  0  0  0  0  0  0  0  0  0  0  0  # atno 4779 bound_to 171 
   -1.7446   24.1299   72.4863 LP  0  0  0  0  0  0  0  0  0  0  0  0  # atno 4780 bound_to 171 
   -8.7886   26.0828   64.0035 LP  0  0  0  0  0  0  0  0  0  0  0  0  # atno 4783 bound_to 185 
   -7.7893   25.0955   63.1708 LP  0  0  0  0  0  0  0  0  0  0  0  0  # atno 4784 bound_to 185 
   -3.1046   16.8189   72.5448 LP  0  0  0  0  0  0  0  0  0  0  0  0  # atno 4785 bound_to 346 
   -1.7861   17.6875   72.9616 LP  0  0  0  0  0  0  0  0  0  0  0  0  # atno 4786 bound_to 346 
   -3.6469   20.8982   74.3042 LP  0  0  0  0  0  0  0  0  0  0  0  0  # atno 4787 bound_to 339 
   -2.7662   20.9098   75.6793 LP  0  0  0  0  0  0  0  0  0  0  0  0  # atno 4788 bound_to 339 
   -7.7674   29.9888   64.9532 LP  0  0  0  0  0  0  0  0  0  0  0  0  # atno 4797 bound_to 154 
   -8.3884   28.5457   65.3987 LP  0  0  0  0  0  0  0  0  0  0  0  0  # atno 4798 bound_to 154 

> <Gold.Score>
     Score     S(PLP)   S(hbond)     S(cho)   S(metal)  DE(clash)   DE(tors)     intcor
     42.28     -42.98       0.00       0.00       0.00       1.69       0.43       1.85

> <Gold.PLP.Fitness>
42.2847

> <Gold.PLP.PLP>
-42.9819

> <Gold.PLP.part.hbond>
-1.0000

> <Gold.PLP.part.metal>
0.0000

> <Gold.PLP.part.buried>
-5.9253

> <Gold.PLP.part.nonpolar>
-38.0001

> <Gold.PLP.part.repulsive>
1.4308

> <Gold.PLP.ligand.clash>
1.6861

> <Gold.PLP.ligand.torsion>
0.4315

> <Gold.PLP.Chemscore.Hbond>
0.0000

> <Gold.PLP.Chemscore.CHOScore>
0.0000

> <Gold.PLP.Chemscore.Metal>
0.0000

> <Gold.PLP.Chemscore.Internal.Correction>
1.8519

