#       Name:                unknown
#       Creating user name   williammccorkindale
#       Creation time:       Tue Jun  7 14:55:37 2022


#       File generated by GOLD software.
#

@<TRIPOS>MOLECULE
unknown|prepared_Mpro-x1077|mol2|1|dock2
    32    33     1
SMALL
NO_CHARGES


@<TRIPOS>ATOM
      1 N1         -11.8755   6.5125  71.2779 N.1            1 RES1               0.0000
      2 C2         -12.0606   7.6552  71.2737 C.1            1 RES1               0.0000
      3 C3         -12.2793   9.0870  71.2542 C.ar           1 RES1               0.0000
      4 C4         -11.6210   9.9015  70.3563 C.ar           1 RES1               0.0000
      5 C5         -11.8305  11.2716  70.3378 C.ar           1 RES1               0.0000
      6 C6         -12.7067  11.8738  71.2179 C.ar           1 RES1               0.0000
      7 C7         -13.3461  11.0288  72.1001 C.ar           1 RES1               0.0000
      8 N8         -13.1311   9.6802  72.1083 N.ar           1 RES1               0.0000
      9 N9         -12.9128  13.2670  71.1950 N.pl3          1 RES1               0.0000
     10 C10        -12.1604  13.9664  70.1387 C.3            1 RES1               0.0000
     11 C11        -12.2973  15.4565  70.2283 C.3            1 RES1               0.0000
     12 C12        -12.1509  15.9695  71.6525 C.3            1 RES1               0.0000
     13 O13        -11.7615  15.0000  72.5441 O.3            1 RES1               0.0000
     14 C14        -12.8928  14.4997  73.2303 C.3            1 RES1               0.0000
     15 C15        -13.7787  13.9104  72.1235 C.3            1 RES1               0.0000
     16 H16        -10.9328   9.4179  69.6673 H              1 RES1               0.0000
     17 H17        -11.2954  11.8969  69.6140 H              1 RES1               0.0000
     18 H18        -14.0342  11.4838  72.7963 H              1 RES1               0.0000
     19 H19        -12.6126  13.6375  69.1814 H              1 RES1               0.0000
     20 H20        -11.0785  13.7383  70.2173 H              1 RES1               0.0000
     21 H21        -13.3155  15.7116  69.8328 H              1 RES1               0.0000
     22 H22        -11.5322  15.9120  69.6020 H              1 RES1               0.0000
     23 H23        -13.0668  16.4495  72.0295 H              1 RES1               0.0000
     24 H24        -11.3605  16.7696  71.6795 H              1 RES1               0.0000
     25 H25        -12.6150  13.7149  73.9407 H              1 RES1               0.0000
     26 H26        -13.4239  15.3540  73.7051 H              1 RES1               0.0000
     27 H27        -14.6194  13.3468  72.5058 H              1 RES1               0.0000
     28 H28        -14.2446  14.8292  71.6498 H              1 RES1               0.0000
     29 ****       -11.7156   5.5253  71.2815 LP             1 RES1               0.0000
     30 ****       -13.6232   9.1157  72.7711 LP             1 RES1               0.0000
     31 ****       -11.1202  15.3930  73.2031 LP             1 RES1               0.0000
     32 ****       -11.3159  14.2537  72.0497 LP             1 RES1               0.0000
@<TRIPOS>BOND
    1    1    2 3     
    2    2    3 1     
    3    3    4 ar    
    4    4    5 ar    
    5    5    6 ar    
    6    6    7 ar    
    7    7    8 ar    
    8    6    9 1     
    9    9   10 1     
   10   10   11 1     
   11   11   12 1     
   12   12   13 1     
   13   13   14 1     
   14   14   15 1     
   15    3    8 ar    
   16   15    9 1     
   17    4   16 1     
   18    5   17 1     
   19    7   18 1     
   20   10   19 1     
   21   10   20 1     
   22   11   21 1     
   23   11   22 1     
   24   12   23 1     
   25   12   24 1     
   26   14   25 1     
   27   14   26 1     
   28   15   27 1     
   29   15   28 1     
   30    1   29 1     
   31    8   30 1     
   32   13   31 1     
   33   13   32 1     
@<TRIPOS>SUBSTRUCTURE
      1 RES1           1
@<TRIPOS>SET
LONE_PAIRS      STATIC     ATOMS    <user>   **** ""
4 29 30 31 32
ATOM$BLUE        STATIC     ATOMS    COLORGROUP SYSTEM
4 29 30 31 32
@<TRIPOS>COMMENT
> <Gold.Version>
2022.1.0

> <Gold.Id.Protein>
6LU7|6LU7_protein|mol2

> <Gold.Protein.RotatedTorsions>
[ 3973 1471 1470 1467 ] final  112.06 input   60.00 | X-H torsion
[ 3372  414  413  411 ] final   99.20 input   60.00 | X-H torsion
[ 4268 1114 1113 1110 ] final  -91.18 input   59.99 | X-H torsion
[ 4409  924  923  921 ] final  108.68 input   59.99 | X-H torsion
[ 4183 1244 1243 1241 ] final   10.57 input   59.99 | X-H torsion
[ 3800  178  177  174 ] final  141.17 input   60.00 | X-H torsion
[ 3793  171  170  167 ] final  168.65 input   60.00 | X-H torsion
[ 3576  185  184  181 ] final  -88.05 input   60.00 | X-H torsion
[ 3523  346  345  342 ] final -160.55 input   60.01 | X-H torsion
[ 3515  339  338  335 ] final   78.29 input   60.00 | X-H torsion
[ 3663  154  153  150 ] final   96.70 input   60.00 | X-H torsion
[ 4280 1130 1129 1126 ] final -104.36 input   60.00 | X-H torsion

> <Gold.Protein.ActiveResidues>
 VAL20   THR21   CYS22   GLY23   THR24   THR25   THR26   LEU27   ASN28   PRO39  
 ARG40   HIS41   VAL42   CYS44   THR45   SER46   ASP48   MET49   LEU50   PRO52  
 TYR54   TYR118  ASN119  ILE136  GLY138  SER139  PHE140  LEU141  ASN142  GLY143 
 SER144  CYS145  GLY146  SER147  TYR161  HIS163  HIS164  MET165  GLU166  LEU167 
 PRO168  THR169  GLY170  VAL171  HIS172  ALA173  PHE181  PHE185  VAL186  ASP187 
 ARG188  GLN189  THR190  ALA191  GLN192  ALA193 

> <Gold.Protein.RotatedAtoms>
  -14.0233   17.4603   76.2869 H   0  0  0  0  0  0  0  0  0  0  0  0  # atno 3372 bound_to 414 
   -3.4633   21.9897   74.3233 H   0  0  0  0  0  0  0  0  0  0  0  0  # atno 3515 bound_to 339 
   -2.0114   17.0286   72.7091 H   0  0  0  0  0  0  0  0  0  0  0  0  # atno 3523 bound_to 346 
   -7.9290   25.0576   63.2367 H   0  0  0  0  0  0  0  0  0  0  0  0  # atno 3576 bound_to 185 
   -8.0489   29.9007   64.9772 H   0  0  0  0  0  0  0  0  0  0  0  0  # atno 3663 bound_to 154 
   -1.8710   23.6793   72.1747 H   0  0  0  0  0  0  0  0  0  0  0  0  # atno 3793 bound_to 171 
   -7.4761   23.5643   72.5162 H   0  0  0  0  0  0  0  0  0  0  0  0  # atno 3800 bound_to 178 
  -15.6751    7.3844   77.9753 H   0  0  0  0  0  0  0  0  0  0  0  0  # atno 3973 bound_to 1471
  -21.0425   12.6346   64.2753 H   0  0  0  0  0  0  0  0  0  0  0  0  # atno 4183 bound_to 1244
  -12.4014   15.5449   61.5221 H   0  0  0  0  0  0  0  0  0  0  0  0  # atno 4268 bound_to 1114
  -16.3831   19.4693   57.9618 H   0  0  0  0  0  0  0  0  0  0  0  0  # atno 4280 bound_to 1130
  -10.4072   14.8958   56.9967 H   0  0  0  0  0  0  0  0  0  0  0  0  # atno 4409 bound_to 924 
  -15.0229    8.2972   76.7966 LP  0  0  0  0  0  0  0  0  0  0  0  0  # atno 4696 bound_to 1471
  -15.3339    8.9496   78.2609 LP  0  0  0  0  0  0  0  0  0  0  0  0  # atno 4697 bound_to 1471
  -14.5756   18.3268   75.0250 LP  0  0  0  0  0  0  0  0  0  0  0  0  # atno 4731 bound_to 414 
  -15.5019   17.1528   75.6808 LP  0  0  0  0  0  0  0  0  0  0  0  0  # atno 4732 bound_to 414 
  -13.8601   15.3517   60.8273 LP  0  0  0  0  0  0  0  0  0  0  0  0  # atno 4733 bound_to 1114
  -13.6594   16.4491   62.0198 LP  0  0  0  0  0  0  0  0  0  0  0  0  # atno 4734 bound_to 1114
  -11.8785   15.3258   56.4505 LP  0  0  0  0  0  0  0  0  0  0  0  0  # atno 4763 bound_to 924 
  -11.5854   15.2670   58.0559 LP  0  0  0  0  0  0  0  0  0  0  0  0  # atno 4764 bound_to 924 
  -20.0479   13.9153   64.1384 LP  0  0  0  0  0  0  0  0  0  0  0  0  # atno 4771 bound_to 1244
  -20.2721   12.9126   62.8691 LP  0  0  0  0  0  0  0  0  0  0  0  0  # atno 4772 bound_to 1244
   -6.0907   23.5997   71.6633 LP  0  0  0  0  0  0  0  0  0  0  0  0  # atno 4775 bound_to 178 
   -7.0446   22.2749   71.6221 LP  0  0  0  0  0  0  0  0  0  0  0  0  # atno 4776 bound_to 178 
   -3.4462   23.8926   71.8268 LP  0  0  0  0  0  0  0  0  0  0  0  0  # atno 4779 bound_to 171 
   -2.6500   24.9954   72.7305 LP  0  0  0  0  0  0  0  0  0  0  0  0  # atno 4780 bound_to 171 
   -7.2860   26.5488   63.3413 LP  0  0  0  0  0  0  0  0  0  0  0  0  # atno 4783 bound_to 185 
   -8.7367   26.2326   64.0211 LP  0  0  0  0  0  0  0  0  0  0  0  0  # atno 4784 bound_to 185 
   -2.5500   18.4871   73.1893 LP  0  0  0  0  0  0  0  0  0  0  0  0  # atno 4785 bound_to 346 
   -3.6075   17.3453   72.6947 LP  0  0  0  0  0  0  0  0  0  0  0  0  # atno 4786 bound_to 346 
   -3.3627   20.4565   74.8592 LP  0  0  0  0  0  0  0  0  0  0  0  0  # atno 4787 bound_to 339 
   -2.6400   21.6633   75.6885 LP  0  0  0  0  0  0  0  0  0  0  0  0  # atno 4788 bound_to 339 
   -8.1723   28.3531   65.4649 LP  0  0  0  0  0  0  0  0  0  0  0  0  # atno 4797 bound_to 154 
   -6.7020   29.0390   65.2797 LP  0  0  0  0  0  0  0  0  0  0  0  0  # atno 4798 bound_to 154 

> <Gold.Score>
     Score     S(PLP)   S(hbond)     S(cho)   S(metal)  DE(clash)   DE(tors)     intcor
     44.30     -42.87       0.00       0.81       0.00       1.01       0.00       0.00

> <Gold.PLP.Fitness>
44.3030

> <Gold.PLP.PLP>
-42.8745

> <Gold.PLP.part.hbond>
0.0000

> <Gold.PLP.part.metal>
0.0000

> <Gold.PLP.part.buried>
-6.2663

> <Gold.PLP.part.nonpolar>
-37.8556

> <Gold.PLP.part.repulsive>
0.3562

> <Gold.PLP.ligand.clash>
1.0062

> <Gold.PLP.ligand.torsion>
0.0020

> <Gold.PLP.Chemscore.Hbond>
0.0000

> <Gold.PLP.Chemscore.CHOScore>
0.8129

> <Gold.PLP.Chemscore.Metal>
0.0000

> <Gold.Chemscore.Hbonds>
donor molecule, donor type, donor heavy atom, donor atom, acceptor molecule, acceptor atom, score
      L1  C     7    18       P1  1449  0.81

> <Gold.PLP.Chemscore.Internal.Correction>
0.0001

