#       Name:                /Users/williammccorkindale/ml_physics/smi2wyck/notebooks/docking/mpro_fragments/prepared_Mpro-x0395.mol2
#       Creating user name   williammccorkindale
#       Creation time:       Tue Jun  7 14:55:41 2022


#       File generated by GOLD software.
#

@<TRIPOS>MOLECULE
/Users/williammccorkindale/ml_physics/smi2wyck/notebooks/docking/mpro_fragments/prepared_Mpro-x0395.mol2
    29    30     1
SMALL
NO_CHARGES


@<TRIPOS>ATOM
      1 C1           4.9054   0.0536   1.2164 C.3            1 RES1               0.0000
      2 C2           3.5608  -0.4498   0.7570 C.2            1 RES1               0.0000
      3 N3           2.9330  -1.5681   1.1052 N.2            1 RES1               0.0000
      4 N4           1.8019  -1.8373   0.6204 N.2            1 RES1               0.0000
      5 C5           1.2269  -1.0064  -0.2427 C.2            1 RES1               0.0000
      6 C6          -0.0786  -1.0906  -0.9465 C.3            1 RES1               0.0000
      7 N7          -1.1513  -0.4939  -0.2312 N.3            1 RES1               0.0000
      8 C8          -2.3736  -0.6275  -0.9966 C.3            1 RES1               0.0000
      9 C9          -3.1557   0.6784  -1.0676 C.3            1 RES1               0.0000
     10 C10         -3.2893   1.1523   0.3396 C.2            1 RES1               0.0000
     11 C11         -2.1421   1.2427   1.0258 C.2            1 RES1               0.0000
     12 F12         -2.0685   1.6489   2.2987 F              1 RES1               0.0000
     13 C13         -0.9232   0.8400   0.2250 C.3            1 RES1               0.0000
     14 S14          2.4273   0.2263  -0.3316 S.3            1 RES1               0.0000
     15 H15          4.8292   0.5168   2.2001 H              1 RES1               0.0000
     16 H16          5.2152   0.8170   0.4781 H              1 RES1               0.0000
     17 H17          5.5833  -0.8265   1.1730 H              1 RES1               0.0000
     18 H18         -0.3365  -2.1471  -1.1484 H              1 RES1               0.0000
     19 H19          0.0452  -0.6093  -1.9426 H              1 RES1               0.0000
     20 H20         -2.1324  -0.9791  -2.0158 H              1 RES1               0.0000
     21 H21         -3.0238  -1.3354  -0.4427 H              1 RES1               0.0000
     22 H22         -2.6286   1.4384  -1.6792 H              1 RES1               0.0000
     23 H23         -4.1270   0.4442  -1.5345 H              1 RES1               0.0000
     24 H24         -4.2142   1.4136   0.8122 H              1 RES1               0.0000
     25 H25         -0.8245   1.5929  -0.5640 H              1 RES1               0.0000
     26 H26         -0.0589   0.9062   0.8922 H              1 RES1               0.0000
     27 ****         3.3598  -2.1979   1.7541 LP             1 RES1               0.0000
     28 ****         1.3344  -2.6804   0.8863 LP             1 RES1               0.0000
     29 ****        -1.2366  -1.0015   0.6262 LP             1 RES1               0.0000
@<TRIPOS>BOND
    1    1    2 1     
    2    2    3 2     
    3    3    4 1     
    4    4    5 2     
    5    5    6 1     
    6    6    7 1     
    7    7    8 1     
    8    8    9 1     
    9    9   10 1     
   10   10   11 2     
   11   11   12 1     
   12   11   13 1     
   13    5   14 1     
   14   14    2 1     
   15   13    7 1     
   16    1   15 1     
   17    1   16 1     
   18    1   17 1     
   19    6   18 1     
   20    6   19 1     
   21    8   20 1     
   22    8   21 1     
   23    9   22 1     
   24    9   23 1     
   25   10   24 1     
   26   13   25 1     
   27   13   26 1     
   28    3   27 1     
   29    4   28 1     
   30    7   29 1     
@<TRIPOS>SUBSTRUCTURE
      1 RES1           1
@<TRIPOS>SET
LONE_PAIRS      STATIC     ATOMS    <user>   **** ""
3 27 28 29
ATOM$BLUE        STATIC     ATOMS    COLORGROUP SYSTEM
3 27 28 29
