#       Name:                unknown
#       Creating user name   williammccorkindale
#       Creation time:       Tue Jun  7 14:55:34 2022


#       File generated by GOLD software.
#

@<TRIPOS>MOLECULE
unknown|prepared_Mpro-x0354|mol2|1|dock2
    43    44     1
SMALL
NO_CHARGES


@<TRIPOS>ATOM
      1 C1         -12.2986  13.6123  63.5897 C.3            1 RES1               0.0000
      2 N2         -11.2760  13.7897  64.5738 N.3            1 RES1               0.0000
      3 C3         -10.4635  12.6186  64.6989 C.3            1 RES1               0.0000
      4 C4         -11.2037  11.4769  65.3914 C.3            1 RES1               0.0000
      5 N5         -11.7015  11.9988  66.6322 N.am           1 RES1               0.0000
      6 C6         -12.5063  13.1914  66.6208 C.3            1 RES1               0.0000
      7 C7         -11.7476  14.2442  65.8424 C.3            1 RES1               0.0000
      8 C8         -11.3983  11.3411  67.8442 C.2            1 RES1               0.0000
      9 O9         -10.6948  10.2957  67.8817 O.2            1 RES1               0.0000
     10 C10        -11.9230  11.8962  69.1136 C.3            1 RES1               0.0000
     11 O11        -11.5402  13.2467  69.2002 O.3            1 RES1               0.0000
     12 C12        -11.8726  13.9649  70.3509 C.ar           1 RES1               0.0000
     13 C13        -11.4095  15.2468  70.5616 C.ar           1 RES1               0.0000
     14 C14        -11.7407  15.9531  71.7006 C.ar           1 RES1               0.0000
     15 C15        -12.5481  15.4213  72.6864 C.ar           1 RES1               0.0000
     16 C16        -12.9009  16.1867  73.9100 C.3            1 RES1               0.0000
     17 C17        -13.0104  14.1375  72.4725 C.ar           1 RES1               0.0000
     18 C18        -12.6793  13.4310  71.3336 C.ar           1 RES1               0.0000
     19 H19        -12.0937  12.7376  62.9110 H              1 RES1               0.0000
     20 H20        -13.2933  13.4913  64.0667 H              1 RES1               0.0000
     21 H21        -12.2664  14.5082  62.9106 H              1 RES1               0.0000
     22 H22         -9.5902  12.8531  65.3258 H              1 RES1               0.0000
     23 H23        -10.2112  12.2631  63.6855 H              1 RES1               0.0000
     24 H24        -12.0267  11.0928  64.7547 H              1 RES1               0.0000
     25 H25        -10.4444  10.6735  65.5246 H              1 RES1               0.0000
     26 H26        -13.4948  13.0322  66.1510 H              1 RES1               0.0000
     27 H27        -12.6635  13.5551  67.6401 H              1 RES1               0.0000
     28 H28        -10.8433  14.4999  66.4597 H              1 RES1               0.0000
     29 H29        -12.3917  15.1246  65.7707 H              1 RES1               0.0000
     30 H30        -11.5493  11.3162  69.9922 H              1 RES1               0.0000
     31 H31        -13.0451  11.7872  69.1645 H              1 RES1               0.0000
     32 H32        -10.7724  15.6836  69.7973 H              1 RES1               0.0000
     33 H33        -11.3692  16.9688  71.8596 H              1 RES1               0.0000
     34 H34        -12.0770  16.0831  74.6565 H              1 RES1               0.0000
     35 H35        -13.1222  17.2513  73.6841 H              1 RES1               0.0000
     36 H36        -13.8113  15.7750  74.3806 H              1 RES1               0.0000
     37 H37        -13.6462  13.7087  73.2410 H              1 RES1               0.0000
     38 H38        -13.0568  12.4151  71.1849 H              1 RES1               0.0000
     39 ****       -10.7055  14.5355  64.2297 LP             1 RES1               0.0000
     40 ****       -10.3321   9.9064  67.0350 LP             1 RES1               0.0000
     41 ****       -10.4996   9.8556  68.7582 LP             1 RES1               0.0000
     42 ****       -11.9582  13.7216  68.4257 LP             1 RES1               0.0000
     43 ****       -10.5445  13.2768  69.1117 LP             1 RES1               0.0000
@<TRIPOS>BOND
    1    1    2 1     
    2    2    3 1     
    3    3    4 1     
    4    4    5 1     
    5    5    6 1     
    6    6    7 1     
    7    5    8 am    
    8    8    9 2     
    9    8   10 1     
   10   10   11 1     
   11   11   12 1     
   12   12   13 ar    
   13   13   14 ar    
   14   14   15 ar    
   15   15   16 1     
   16   15   17 ar    
   17   17   18 ar    
   18    7    2 1     
   19   12   18 ar    
   20    1   19 1     
   21    1   20 1     
   22    1   21 1     
   23    3   22 1     
   24    3   23 1     
   25    4   24 1     
   26    4   25 1     
   27    6   26 1     
   28    6   27 1     
   29    7   28 1     
   30    7   29 1     
   31   10   30 1     
   32   10   31 1     
   33   13   32 1     
   34   14   33 1     
   35   16   34 1     
   36   16   35 1     
   37   16   36 1     
   38   17   37 1     
   39   18   38 1     
   40    2   39 1     
   41    9   40 1     
   42    9   41 1     
   43   11   42 1     
   44   11   43 1     
@<TRIPOS>SUBSTRUCTURE
      1 RES1           1
@<TRIPOS>SET
LONE_PAIRS      STATIC     ATOMS    <user>   **** ""
5 39 40 41 42 43
ATOM$BLUE        STATIC     ATOMS    COLORGROUP SYSTEM
5 39 40 41 42 43
@<TRIPOS>COMMENT
> <Gold.Version>
2022.1.0

> <Gold.Id.Protein>
6LU7|6LU7_protein|mol2

> <Gold.Protein.RotatedTorsions>
[ 3973 1471 1470 1467 ] final -154.74 input   60.00 | X-H torsion
[ 3372  414  413  411 ] final  149.81 input   60.00 | X-H torsion
[ 4268 1114 1113 1110 ] final    5.19 input   59.99 | X-H torsion
[ 4409  924  923  921 ] final -161.77 input   59.99 | X-H torsion
[ 4183 1244 1243 1241 ] final  132.81 input   59.99 | X-H torsion
[ 3800  178  177  174 ] final   -0.73 input   60.00 | X-H torsion
[ 3793  171  170  167 ] final   86.07 input   60.00 | X-H torsion
[ 3576  185  184  181 ] final -171.90 input   60.00 | X-H torsion
[ 3523  346  345  342 ] final -111.33 input   60.01 | X-H torsion
[ 3515  339  338  335 ] final   63.13 input   60.00 | X-H torsion
[ 3663  154  153  150 ] final -110.86 input   60.00 | X-H torsion
[ 4280 1130 1129 1126 ] final  159.34 input   60.00 | X-H torsion

> <Gold.Protein.ActiveResidues>
 VAL20   THR21   CYS22   GLY23   THR24   THR25   THR26   LEU27   ASN28   PRO39  
 ARG40   HIS41   VAL42   CYS44   THR45   SER46   ASP48   MET49   LEU50   PRO52  
 TYR54   TYR118  ASN119  ILE136  GLY138  SER139  PHE140  LEU141  ASN142  GLY143 
 SER144  CYS145  GLY146  SER147  TYR161  HIS163  HIS164  MET165  GLU166  LEU167 
 PRO168  THR169  GLY170  VAL171  HIS172  ALA173  PHE181  PHE185  VAL186  ASP187 
 ARG188  GLN189  THR190  ALA191  GLN192  ALA193 

> <Gold.Protein.RotatedAtoms>
  -14.6809   17.0084   76.3508 H   0  0  0  0  0  0  0  0  0  0  0  0  # atno 3372 bound_to 414 
   -3.5611   21.7871   74.2210 H   0  0  0  0  0  0  0  0  0  0  0  0  # atno 3515 bound_to 339 
   -2.7167   16.7375   72.5486 H   0  0  0  0  0  0  0  0  0  0  0  0  # atno 3523 bound_to 346 
   -7.1504   26.0291   63.1144 H   0  0  0  0  0  0  0  0  0  0  0  0  # atno 3576 bound_to 185 
   -6.8914   28.5720   65.4265 H   0  0  0  0  0  0  0  0  0  0  0  0  # atno 3663 bound_to 154 
   -3.0050   23.4960   71.7201 H   0  0  0  0  0  0  0  0  0  0  0  0  # atno 3793 bound_to 171 
   -6.0603   23.2888   71.4904 H   0  0  0  0  0  0  0  0  0  0  0  0  # atno 3800 bound_to 178 
  -15.5028    8.6274   78.5004 H   0  0  0  0  0  0  0  0  0  0  0  0  # atno 3973 bound_to 1471
  -20.2529   12.9447   62.8722 H   0  0  0  0  0  0  0  0  0  0  0  0  # atno 4183 bound_to 1244
  -13.2904   16.4340   62.1275 H   0  0  0  0  0  0  0  0  0  0  0  0  # atno 4268 bound_to 1114
  -15.7271   18.5964   58.8295 H   0  0  0  0  0  0  0  0  0  0  0  0  # atno 4280 bound_to 1130
  -11.1129   15.1278   58.0862 H   0  0  0  0  0  0  0  0  0  0  0  0  # atno 4409 bound_to 924 
  -15.5627    7.2984   77.5634 LP  0  0  0  0  0  0  0  0  0  0  0  0  # atno 4696 bound_to 1471
  -14.9676    8.6965   76.9653 LP  0  0  0  0  0  0  0  0  0  0  0  0  # atno 4697 bound_to 1471
  -13.9581   18.2138   75.5308 LP  0  0  0  0  0  0  0  0  0  0  0  0  # atno 4731 bound_to 414 
  -15.4572   17.7209   75.1107 LP  0  0  0  0  0  0  0  0  0  0  0  0  # atno 4732 bound_to 414 
  -12.5182   15.3077   61.2426 LP  0  0  0  0  0  0  0  0  0  0  0  0  # atno 4733 bound_to 1114
  -14.1060   15.5976   60.9948 LP  0  0  0  0  0  0  0  0  0  0  0  0  # atno 4734 bound_to 1114
  -10.6096   14.9462   56.5495 LP  0  0  0  0  0  0  0  0  0  0  0  0  # atno 4763 bound_to 924 
  -12.1434   15.4130   56.8596 LP  0  0  0  0  0  0  0  0  0  0  0  0  # atno 4764 bound_to 924 
  -21.0494   12.6073   64.2505 LP  0  0  0  0  0  0  0  0  0  0  0  0  # atno 4771 bound_to 1244
  -20.0657   13.9083   64.1700 LP  0  0  0  0  0  0  0  0  0  0  0  0  # atno 4772 bound_to 1244
   -7.3312   22.3307   71.8297 LP  0  0  0  0  0  0  0  0  0  0  0  0  # atno 4775 bound_to 178 
   -7.2299   23.8214   72.4886 LP  0  0  0  0  0  0  0  0  0  0  0  0  # atno 4776 bound_to 178 
   -3.2052   24.9056   72.5080 LP  0  0  0  0  0  0  0  0  0  0  0  0  # atno 4779 bound_to 171 
   -1.7488   24.1670   72.5072 LP  0  0  0  0  0  0  0  0  0  0  0  0  # atno 4780 bound_to 171 
   -8.3726   26.6868   63.9638 LP  0  0  0  0  0  0  0  0  0  0  0  0  # atno 4783 bound_to 185 
   -8.4343   25.1161   63.5217 LP  0  0  0  0  0  0  0  0  0  0  0  0  # atno 4784 bound_to 185 
   -1.9094   18.0462   73.0810 LP  0  0  0  0  0  0  0  0  0  0  0  0  # atno 4785 bound_to 346 
   -3.5379   18.0794   72.9645 LP  0  0  0  0  0  0  0  0  0  0  0  0  # atno 4786 bound_to 346 
   -3.2311   20.4384   75.0696 LP  0  0  0  0  0  0  0  0  0  0  0  0  # atno 4787 bound_to 339 
   -2.6732   21.8854   75.5812 LP  0  0  0  0  0  0  0  0  0  0  0  0  # atno 4788 bound_to 339 
   -7.5324   29.9923   64.9574 LP  0  0  0  0  0  0  0  0  0  0  0  0  # atno 4797 bound_to 154 
   -8.5076   28.7380   65.3347 LP  0  0  0  0  0  0  0  0  0  0  0  0  # atno 4798 bound_to 154 

> <Gold.Score>
     Score     S(PLP)   S(hbond)     S(cho)   S(metal)  DE(clash)   DE(tors)     intcor
     48.18     -48.35       0.00       0.00       0.00       0.00       0.09       0.00

> <Gold.PLP.Fitness>
48.1828

> <Gold.PLP.PLP>
-48.3510

> <Gold.PLP.part.hbond>
0.0000

> <Gold.PLP.part.metal>
0.0000

> <Gold.PLP.part.buried>
-3.7962

> <Gold.PLP.part.nonpolar>
-45.8016

> <Gold.PLP.part.repulsive>
0.3541

> <Gold.PLP.ligand.clash>
0.0000

> <Gold.PLP.ligand.torsion>
0.0855

> <Gold.PLP.Chemscore.Hbond>
0.0000

> <Gold.PLP.Chemscore.CHOScore>
0.0000

> <Gold.PLP.Chemscore.Metal>
0.0000

> <Gold.PLP.Chemscore.Internal.Correction>
0.0027

