#       Name:                unknown
#       Creating user name   williammccorkindale
#       Creation time:       Tue Jun  7 14:55:38 2022


#       File generated by GOLD software.
#

@<TRIPOS>MOLECULE
unknown|prepared_Mpro-x0874|mol2|1|dock2
    28    29     1
SMALL
NO_CHARGES


@<TRIPOS>ATOM
      1 O1         -12.2851  11.4680  68.2101 O.2            1 RES1               0.0000
      2 C2         -11.5563  12.0956  68.9948 C.2            1 RES1               0.0000
      3 C3         -10.9216  13.3381  68.6180 C.3            1 RES1               0.0000
      4 C4         -11.4518  14.6185  69.0785 C.3            1 RES1               0.0000
      5 C5         -11.9830  14.6926  70.4720 C.2            1 RES1               0.0000
      6 C6         -11.4027  15.5457  71.3849 C.2            1 RES1               0.0000
      7 S7         -12.3266  15.3256  72.8023 S.3            1 RES1               0.0000
      8 C8         -13.4248  14.1635  72.2153 C.2            1 RES1               0.0000
      9 C9         -13.0330  13.9799  70.9150 C.2            1 RES1               0.0000
     10 C10        -12.4520  15.0311  68.0363 C.3            1 RES1               0.0000
     11 C11        -11.6288  14.7560  66.7697 C.3            1 RES1               0.0000
     12 C12        -11.0115  13.4263  67.0838 C.3            1 RES1               0.0000
     13 N13        -11.3548  11.5605  70.2929 N.am           1 RES1               0.0000
     14 H14         -9.8089  13.3064  68.8749 H              1 RES1               0.0000
     15 H15        -10.5919  15.3540  68.9699 H              1 RES1               0.0000
     16 H16        -10.5370  16.2147  71.2237 H              1 RES1               0.0000
     17 H17        -14.2488  13.6874  72.7740 H              1 RES1               0.0000
     18 H18        -13.6273  13.2497  70.3100 H              1 RES1               0.0000
     19 H19        -12.7517  16.0883  68.0950 H              1 RES1               0.0000
     20 H20        -13.3718  14.4260  68.0534 H              1 RES1               0.0000
     21 H21        -12.2419  14.7691  65.8678 H              1 RES1               0.0000
     22 H22        -10.8156  15.5091  66.7726 H              1 RES1               0.0000
     23 H23        -11.6673  12.6453  66.6618 H              1 RES1               0.0000
     24 H24        -10.0097  13.3004  66.6253 H              1 RES1               0.0000
     25 H25        -11.7960  10.6602  70.6103 H              1 RES1               0.0000
     26 H26        -10.7544  12.0380  71.0010 H              1 RES1               0.0000
     27 ****       -12.4467  11.8197  67.2880 LP             1 RES1               0.0000
     28 ****       -12.7105  10.6107  68.4999 LP             1 RES1               0.0000
@<TRIPOS>BOND
    1    1    2 2     
    2    2    3 1     
    3    3    4 1     
    4    4    5 1     
    5    5    6 2     
    6    6    7 1     
    7    7    8 1     
    8    8    9 2     
    9    4   10 1     
   10   10   11 1     
   11   11   12 1     
   12    2   13 am    
   13   12    3 1     
   14    9    5 1     
   15    3   14 1     
   16    4   15 1     
   17    6   16 1     
   18    8   17 1     
   19    9   18 1     
   20   10   19 1     
   21   10   20 1     
   22   11   21 1     
   23   11   22 1     
   24   12   23 1     
   25   12   24 1     
   26   13   25 1     
   27   13   26 1     
   28    1   27 1     
   29    1   28 1     
@<TRIPOS>SUBSTRUCTURE
      1 RES1           1
@<TRIPOS>SET
LONE_PAIRS      STATIC     ATOMS    <user>   **** ""
2 27 28
DONOR_HYDROGENS      STATIC     ATOMS    <user>   **** ""
2 25 26
ATOM$BLUE        STATIC     ATOMS    COLORGROUP SYSTEM
2 27 28
ATOM$RED        STATIC     ATOMS    COLORGROUP SYSTEM
2 25 26
@<TRIPOS>COMMENT
> <Gold.Version>
2022.1.0

> <Gold.Id.Protein>
6LU7|6LU7_protein|mol2

> <Gold.Protein.RotatedTorsions>
[ 3973 1471 1470 1467 ] final -118.31 input   60.00 | X-H torsion
[ 3372  414  413  411 ] final  -67.93 input   60.00 | X-H torsion
[ 4268 1114 1113 1110 ] final  -78.59 input   59.99 | X-H torsion
[ 4409  924  923  921 ] final   18.82 input   59.99 | X-H torsion
[ 4183 1244 1243 1241 ] final  -49.51 input   59.99 | X-H torsion
[ 3800  178  177  174 ] final -153.43 input   60.00 | X-H torsion
[ 3793  171  170  167 ] final -107.27 input   60.00 | X-H torsion
[ 3576  185  184  181 ] final  150.74 input   60.00 | X-H torsion
[ 3523  346  345  342 ] final  -78.26 input   60.01 | X-H torsion
[ 3515  339  338  335 ] final   12.47 input   60.00 | X-H torsion
[ 3663  154  153  150 ] final -158.29 input   60.00 | X-H torsion
[ 4280 1130 1129 1126 ] final   31.95 input   60.00 | X-H torsion

> <Gold.Protein.ActiveResidues>
 VAL20   THR21   CYS22   GLY23   THR24   THR25   THR26   LEU27   ASN28   PRO39  
 ARG40   HIS41   VAL42   CYS44   THR45   SER46   ASP48   MET49   LEU50   PRO52  
 TYR54   TYR118  ASN119  ILE136  GLY138  SER139  PHE140  LEU141  ASN142  GLY143 
 SER144  CYS145  GLY146  SER147  TYR161  HIS163  HIS164  MET165  GLU166  LEU167 
 PRO168  THR169  GLY170  VAL171  HIS172  ALA173  PHE181  PHE185  VAL186  ASP187 
 ARG188  GLN189  THR190  ALA191  GLN192  ALA193 

> <Gold.Protein.RotatedAtoms>
  -15.2399   17.9795   74.9783 H   0  0  0  0  0  0  0  0  0  0  0  0  # atno 3372 bound_to 414 
   -3.6607   20.9935   74.2633 H   0  0  0  0  0  0  0  0  0  0  0  0  # atno 3515 bound_to 339 
   -3.2268   16.8905   72.5635 H   0  0  0  0  0  0  0  0  0  0  0  0  # atno 3523 bound_to 346 
   -7.2998   26.5580   63.3542 H   0  0  0  0  0  0  0  0  0  0  0  0  # atno 3576 bound_to 185 
   -6.7225   29.2724   65.2073 H   0  0  0  0  0  0  0  0  0  0  0  0  # atno 3663 bound_to 154 
   -2.1188   24.7649   72.7509 H   0  0  0  0  0  0  0  0  0  0  0  0  # atno 3793 bound_to 171 
   -7.6211   22.6306   72.1549 H   0  0  0  0  0  0  0  0  0  0  0  0  # atno 3800 bound_to 178 
  -15.2691    9.0214   78.1363 H   0  0  0  0  0  0  0  0  0  0  0  0  # atno 3973 bound_to 1471
  -20.6375   13.3931   64.6485 H   0  0  0  0  0  0  0  0  0  0  0  0  # atno 4183 bound_to 1244
  -12.3980   15.6878   61.6696 H   0  0  0  0  0  0  0  0  0  0  0  0  # atno 4268 bound_to 1114
  -15.8241   20.1487   59.4606 H   0  0  0  0  0  0  0  0  0  0  0  0  # atno 4280 bound_to 1130
  -11.4536   15.1967   56.2465 H   0  0  0  0  0  0  0  0  0  0  0  0  # atno 4409 bound_to 924 
  -15.7049    7.4538   78.1138 LP  0  0  0  0  0  0  0  0  0  0  0  0  # atno 4696 bound_to 1471
  -15.0608    8.1443   76.7815 LP  0  0  0  0  0  0  0  0  0  0  0  0  # atno 4697 bound_to 1471
  -15.0091   16.9424   76.2109 LP  0  0  0  0  0  0  0  0  0  0  0  0  # atno 4731 bound_to 414 
  -13.8432   18.0143   75.8127 LP  0  0  0  0  0  0  0  0  0  0  0  0  # atno 4732 bound_to 414 
  -13.6876   15.2478   60.7801 LP  0  0  0  0  0  0  0  0  0  0  0  0  # atno 4733 bound_to 1114
  -13.8353   16.4091   61.9185 LP  0  0  0  0  0  0  0  0  0  0  0  0  # atno 4734 bound_to 1114
  -11.9734   15.3786   57.7778 LP  0  0  0  0  0  0  0  0  0  0  0  0  # atno 4763 bound_to 924 
  -10.4365   14.9112   57.4842 LP  0  0  0  0  0  0  0  0  0  0  0  0  # atno 4764 bound_to 924 
  -19.8652   13.6746   63.2441 LP  0  0  0  0  0  0  0  0  0  0  0  0  # atno 4771 bound_to 1244
  -20.8625   12.3895   63.3875 LP  0  0  0  0  0  0  0  0  0  0  0  0  # atno 4772 bound_to 1244
   -6.7746   24.0134   72.2948 LP  0  0  0  0  0  0  0  0  0  0  0  0  # atno 4775 bound_to 178 
   -6.2146   22.8015   71.3544 LP  0  0  0  0  0  0  0  0  0  0  0  0  # atno 4776 bound_to 178 
   -2.2855   23.3986   71.8830 LP  0  0  0  0  0  0  0  0  0  0  0  0  # atno 4779 bound_to 171 
   -3.5611   24.3961   72.0940 LP  0  0  0  0  0  0  0  0  0  0  0  0  # atno 4780 bound_to 171 
   -8.7444   26.2142   64.0196 LP  0  0  0  0  0  0  0  0  0  0  0  0  # atno 4783 bound_to 185 
   -7.9121   25.0560   63.2244 LP  0  0  0  0  0  0  0  0  0  0  0  0  # atno 4784 bound_to 185 
   -1.7821   17.5527   72.9133 LP  0  0  0  0  0  0  0  0  0  0  0  0  # atno 4785 bound_to 346 
   -3.1514   18.4188   73.1172 LP  0  0  0  0  0  0  0  0  0  0  0  0  # atno 4786 bound_to 346 
   -2.8066   20.8225   75.6378 LP  0  0  0  0  0  0  0  0  0  0  0  0  # atno 4787 bound_to 339 
   -2.9974   22.3005   74.9703 LP  0  0  0  0  0  0  0  0  0  0  0  0  # atno 4788 bound_to 339 
   -8.2573   29.7758   65.0099 LP  0  0  0  0  0  0  0  0  0  0  0  0  # atno 4797 bound_to 154 
   -7.9528   28.2491   65.5030 LP  0  0  0  0  0  0  0  0  0  0  0  0  # atno 4798 bound_to 154 

> <Gold.Score>
     Score     S(PLP)   S(hbond)     S(cho)   S(metal)  DE(clash)   DE(tors)     intcor
     35.73     -30.73       1.95       0.00       0.00       0.00       0.43       0.02

> <Gold.PLP.Fitness>
35.7331

> <Gold.PLP.PLP>
-30.7349

> <Gold.PLP.part.hbond>
-2.0000

> <Gold.PLP.part.metal>
0.0000

> <Gold.PLP.part.buried>
-0.7908

> <Gold.PLP.part.nonpolar>
-29.1847

> <Gold.PLP.part.repulsive>
0.1252

> <Gold.PLP.ligand.clash>
0.0000

> <Gold.PLP.ligand.torsion>
0.4350

> <Gold.PLP.Chemscore.Hbond>
1.9500

> <Gold.PLP.Chemscore.CHOScore>
0.0000

> <Gold.PLP.Chemscore.Metal>
0.0000

> <Gold.Chemscore.Hbonds>
donor molecule, donor type, donor heavy atom, donor atom, acceptor molecule, acceptor atom, score
      L1  H    13    26       P1  1464  0.95
      P1  H  1281  4132       L1     1  1.00

> <Gold.PLP.Chemscore.Internal.Correction>
0.0182

