#       Name:                /Users/williammccorkindale/ml_physics/smi2wyck/notebooks/docking/mpro_fragments/prepared_Mpro-x0995.mol2
#       Creating user name   williammccorkindale
#       Creation time:       Tue Jun  7 14:55:39 2022


#       File generated by GOLD software.
#

@<TRIPOS>MOLECULE
/Users/williammccorkindale/ml_physics/smi2wyck/notebooks/docking/mpro_fragments/prepared_Mpro-x0995.mol2
    14    14     1
SMALL
NO_CHARGES


@<TRIPOS>ATOM
      1 N1          -2.0013   0.0167   0.2419 N.pl3          1 RES1               0.0000
      2 C2          -0.5887  -0.0147   0.0695 C.ar           1 RES1               0.0000
      3 C3           0.1237  -1.1950  -0.0342 C.ar           1 RES1               0.0000
      4 N4           1.4792  -1.1644  -0.1987 N.ar           1 RES1               0.0000
      5 C5           2.1324   0.0057  -0.2615 C.ar           1 RES1               0.0000
      6 N6           1.4800   1.1568  -0.1656 N.ar           1 RES1               0.0000
      7 C7           0.1234   1.1665  -0.0003 C.ar           1 RES1               0.0000
      8 H8          -2.5766  -0.8740   0.2991 H              1 RES1               0.0000
      9 H9          -2.5308   0.9082   0.3193 H              1 RES1               0.0000
     10 H10         -0.4216  -2.1107   0.0191 H              1 RES1               0.0000
     11 H11          3.2031   0.0020  -0.3918 H              1 RES1               0.0000
     12 H12         -0.4262   2.0824   0.0797 H              1 RES1               0.0000
     13 ****         1.9891  -2.0214  -0.2730 LP             1 RES1               0.0000
     14 ****         1.9824   2.0201  -0.2144 LP             1 RES1               0.0000
@<TRIPOS>BOND
    1    1    2 1     
    2    2    3 ar    
    3    3    4 ar    
    4    4    5 ar    
    5    5    6 ar    
    6    6    7 ar    
    7    2    7 ar    
    8    1    8 1     
    9    1    9 1     
   10    3   10 1     
   11    5   11 1     
   12    7   12 1     
   13    4   13 1     
   14    6   14 1     
@<TRIPOS>SUBSTRUCTURE
      1 RES1           1
@<TRIPOS>SET
LONE_PAIRS      STATIC     ATOMS    <user>   **** ""
2 13 14
DONOR_HYDROGENS      STATIC     ATOMS    <user>   **** ""
2 8 9
ATOM$BLUE        STATIC     ATOMS    COLORGROUP SYSTEM
2 13 14
ATOM$RED        STATIC     ATOMS    COLORGROUP SYSTEM
2 8 9
