unknown|prepared_Mpro-x0161|sdf|1|dock3
  -GOLD-   5 72214353D 1   1.00000     0.00000

 23 23  0  0  0  0  0  0  0  0  1 V2000
  -12.5720   15.6709   73.9442 C   0  0  0  0  0  0  0  0  0  0  0  0
  -12.0134   15.8013   72.6565 O   0  0  0  0  0  0  0  0  0  0  0  0
  -12.4946   15.2194   71.5208 C   0  0  0  0  0  0  0  0  0  0  0  0
  -13.5686   14.5676   71.5842 O   0  0  0  0  0  0  0  0  0  0  0  0
  -11.7699   15.3552   70.2567 C   0  0  0  0  0  0  0  0  0  0  0  0
  -10.8032   16.3066   70.0517 C   0  0  0  0  0  0  0  0  0  0  0  0
  -10.1148   16.4462   68.8713 C   0  0  0  0  0  0  0  0  0  0  0  0
  -10.4038   15.5860   67.8257 C   0  0  0  0  0  0  0  0  0  0  0  0
  -11.3635   14.6211   67.9903 C   0  0  0  0  0  0  0  0  0  0  0  0
  -12.0402   14.5031   69.1876 C   0  0  0  0  0  0  0  0  0  0  0  0
   -9.5037   15.7961   66.3354 S   0  0  0  0  0  0  0  0  0  0  0  0
   -8.1191   16.2709   66.6730 O   0  0  0  0  0  0  0  0  0  0  0  0
  -10.2023   16.8239   65.4941 O   0  0  0  0  0  0  0  0  0  0  0  0
   -9.3502   14.2914   65.4947 N   0  0  0  0  0  0  0  0  0  0  0  0
  -12.7352   16.6708   74.4018 H   0  0  0  0  0  0  0  0  0  0  0  0
  -11.8044   15.1722   74.5760 H   0  0  0  0  0  0  0  0  0  0  0  0
  -13.5284   15.1187   73.9433 H   0  0  0  0  0  0  0  0  0  0  0  0
  -10.5752   16.9770   70.8603 H   0  0  0  0  0  0  0  0  0  0  0  0
   -9.3661   17.2296   68.8016 H   0  0  0  0  0  0  0  0  0  0  0  0
  -11.5642   13.9662   67.1537 H   0  0  0  0  0  0  0  0  0  0  0  0
  -12.7938   13.7434   69.3129 H   0  0  0  0  0  0  0  0  0  0  0  0
   -8.3728   14.2945   65.0762 H   0  0  0  0  0  0  0  0  0  0  0  0
   -9.9857   14.3293   64.6620 H   0  0  0  0  0  0  0  0  0  0  0  0
  1  2  1  0  0  0  0
  2  3  1  0  0  0  0
  3  4  2  0  0  0  0
  3  5  1  0  0  0  0
  5  6  2  0  0  0  0
  6  7  1  0  0  0  0
  7  8  2  0  0  0  0
  8  9  1  0  0  0  0
  9 10  2  0  0  0  0
  8 11  1  0  0  0  0
 11 12  2  0  0  0  0
 11 13  2  0  0  0  0
 11 14  1  0  0  0  0
  5 10  1  0  0  0  0
  1 15  1  0  0  0  0
  1 16  1  0  0  0  0
  1 17  1  0  0  0  0
  6 18  1  0  0  0  0
  7 19  1  0  0  0  0
  9 20  1  0  0  0  0
 10 21  1  0  0  0  0
 14 22  1  0  0  0  0
 14 23  1  0  0  0  0
M  END
> <Gold.Version>
2022.1.0

> <Gold.Id.Protein>
6LU7|6LU7_protein|mol2

> <Gold.PLP.Fitness>
36.7137

> <Gold.PLP.PLP>
-31.1314

> <Gold.PLP.part.hbond>
-2.0000

> <Gold.PLP.part.metal>
0.0000

> <Gold.PLP.part.buried>
-6.9837

> <Gold.PLP.part.nonpolar>
-23.0830

> <Gold.PLP.part.repulsive>
0.2442

> <Gold.PLP.ligand.clash>
0.0000

> <Gold.PLP.ligand.torsion>
1.2910

> <Gold.PLP.Chemscore.Hbond>
1.9913

> <Gold.PLP.Chemscore.CHOScore>
0.0000

> <Gold.PLP.Chemscore.Metal>
0.0000

> <Gold.Chemscore.Hbonds>
donor molecule, donor type, donor heavy atom, donor atom, acceptor molecule, acceptor atom, score
      L1  H    14    22       P1  1103  1.00
      P1  H  1105  4261       L1    13  0.99

> <Gold.PLP.Chemscore.Internal.Correction>
2.1906

> <Gold.Protein.RotatedTorsions>
[ 3973 1471 1470 1467 ] final  -48.01 input   60.00 | X-H torsion
[ 3372  414  413  411 ] final  -82.07 input   60.00 | X-H torsion
[ 4268 1114 1113 1110 ] final  177.98 input   59.99 | X-H torsion
[ 4409  924  923  921 ] final  -35.18 input   59.99 | X-H torsion
[ 4183 1244 1243 1241 ] final  140.16 input   59.99 | X-H torsion
[ 3800  178  177  174 ] final    2.69 input   60.00 | X-H torsion
[ 3793  171  170  167 ] final  120.80 input   60.00 | X-H torsion
[ 3576  185  184  181 ] final    7.78 input   60.00 | X-H torsion
[ 3523  346  345  342 ] final  -16.81 input   60.01 | X-H torsion
[ 3515  339  338  335 ] final  -24.88 input   60.00 | X-H torsion
[ 3663  154  153  150 ] final    2.99 input   60.00 | X-H torsion
[ 4280 1130 1129 1126 ] final   54.65 input   60.00 | X-H torsion

> <Gold.Protein.ActiveResidues>
 VAL20   THR21   CYS22   GLY23   THR24   THR25   THR26   LEU27   ASN28   PRO39  
 ARG40   HIS41   VAL42   CYS44   THR45   SER46   ASP48   MET49   LEU50   PRO52  
 TYR54   TYR118  ASN119  ILE136  GLY138  SER139  PHE140  LEU141  ASN142  GLY143 
 SER144  CYS145  GLY146  SER147  TYR161  HIS163  HIS164  MET165  GLU166  LEU167 
 PRO168  THR169  GLY170  VAL171  HIS172  ALA173  PHE181  PHE185  VAL186  ASP187 
 ARG188  GLN189  THR190  ALA191  GLN192  ALA193 

> <Gold.Protein.RotatedAtoms>
  -15.3869   17.8192   75.0550 H   0  0  0  0  0  0  0  0  0  0  0  0  # atno 3372 bound_to 414 
   -3.4911   20.5569   74.6377 H   0  0  0  0  0  0  0  0  0  0  0  0  # atno 3515 bound_to 339 
   -3.6525   17.7068   72.8238 H   0  0  0  0  0  0  0  0  0  0  0  0  # atno 3523 bound_to 346 
   -8.8159   25.8534   63.9515 H   0  0  0  0  0  0  0  0  0  0  0  0  # atno 3576 bound_to 185 
   -8.4570   28.6558   65.3644 H   0  0  0  0  0  0  0  0  0  0  0  0  # atno 3663 bound_to 154 
   -2.4666   23.3782   71.8130 H   0  0  0  0  0  0  0  0  0  0  0  0  # atno 3793 bound_to 171 
   -6.0582   23.3396   71.5138 H   0  0  0  0  0  0  0  0  0  0  0  0  # atno 3800 bound_to 178 
  -14.9707    8.8550   77.1140 H   0  0  0  0  0  0  0  0  0  0  0  0  # atno 3973 bound_to 1471
  -20.1824   13.0418   62.8736 H   0  0  0  0  0  0  0  0  0  0  0  0  # atno 4183 bound_to 1244
  -13.4327   15.1568   60.7710 H   0  0  0  0  0  0  0  0  0  0  0  0  # atno 4268 bound_to 1114
  -15.6701   19.8520   59.6154 H   0  0  0  0  0  0  0  0  0  0  0  0  # atno 4280 bound_to 1130
  -12.0981   15.3999   56.7622 H   0  0  0  0  0  0  0  0  0  0  0  0  # atno 4409 bound_to 924 
  -15.5807    8.4343   78.5627 LP  0  0  0  0  0  0  0  0  0  0  0  0  # atno 4696 bound_to 1471
  -15.4855    7.3314   77.3622 LP  0  0  0  0  0  0  0  0  0  0  0  0  # atno 4697 bound_to 1471
  -14.8021   16.9686   76.3130 LP  0  0  0  0  0  0  0  0  0  0  0  0  # atno 4731 bound_to 414 
  -13.9022   18.1496   75.6334 LP  0  0  0  0  0  0  0  0  0  0  0  0  # atno 4732 bound_to 414 
  -14.0265   16.3110   61.7524 LP  0  0  0  0  0  0  0  0  0  0  0  0  # atno 4733 bound_to 1114
  -12.4543   15.8807   61.8512 LP  0  0  0  0  0  0  0  0  0  0  0  0  # atno 4734 bound_to 1114
  -11.2151   15.1566   58.1073 LP  0  0  0  0  0  0  0  0  0  0  0  0  # atno 4763 bound_to 924 
  -10.5457   14.9286   56.6353 LP  0  0  0  0  0  0  0  0  0  0  0  0  # atno 4764 bound_to 924 
  -21.0581   12.5405   64.1503 LP  0  0  0  0  0  0  0  0  0  0  0  0  # atno 4771 bound_to 1244
  -20.1280   13.8774   64.2689 LP  0  0  0  0  0  0  0  0  0  0  0  0  # atno 4772 bound_to 1244
   -7.2897   22.3138   71.7954 LP  0  0  0  0  0  0  0  0  0  0  0  0  # atno 4775 bound_to 178 
   -7.2734   23.7871   72.4994 LP  0  0  0  0  0  0  0  0  0  0  0  0  # atno 4776 bound_to 178 
   -3.5213   24.5549   72.2015 LP  0  0  0  0  0  0  0  0  0  0  0  0  # atno 4779 bound_to 171 
   -1.9750   24.6364   72.7202 LP  0  0  0  0  0  0  0  0  0  0  0  0  # atno 4780 bound_to 171 
   -7.5915   25.2050   63.0981 LP  0  0  0  0  0  0  0  0  0  0  0  0  # atno 4783 bound_to 185 
   -7.5380   26.7749   63.5444 LP  0  0  0  0  0  0  0  0  0  0  0  0  # atno 4784 bound_to 185 
   -2.3125   16.8101   72.6041 LP  0  0  0  0  0  0  0  0  0  0  0  0  # atno 4785 bound_to 346 
   -2.1923   18.3393   73.1642 LP  0  0  0  0  0  0  0  0  0  0  0  0  # atno 4786 bound_to 346 
   -2.6453   21.3940   75.7476 LP  0  0  0  0  0  0  0  0  0  0  0  0  # atno 4787 bound_to 339 
   -3.3296   22.1688   74.4835 LP  0  0  0  0  0  0  0  0  0  0  0  0  # atno 4788 bound_to 339 
   -6.8301   28.6482   65.4013 LP  0  0  0  0  0  0  0  0  0  0  0  0  # atno 4797 bound_to 154 
   -7.6333   29.9977   64.9534 LP  0  0  0  0  0  0  0  0  0  0  0  0  # atno 4798 bound_to 154 

$$$$
