unknown|prepared_Mpro-x0874|sdf|1|dock5
  -GOLD-   5 72214353D 1   1.00000     0.00000

 26 27  0  0  0  0  0  0  0  0  1 V2000
  -10.2141   12.4307   67.2250 O   0  0  0  0  0  0  0  0  0  0  0  0
  -11.0472   12.9717   67.9751 C   0  0  0  0  0  0  0  0  0  0  0  0
  -11.9784   13.9992   67.5186 C   0  0  2  0  0  0  0  0  0  0  0  0
  -11.7645   14.5431   66.1476 C   0  0  2  0  0  0  0  0  0  0  0  0
  -11.6009   13.4768   65.0918 C   0  0  0  0  0  0  0  0  0  0  0  0
  -10.4088   13.3227   64.4502 C   0  0  0  0  0  0  0  0  0  0  0  0
  -10.6962   12.0163   63.3966 S   0  0  0  0  0  0  0  0  0  0  0  0
  -12.3201   11.6943   63.7924 C   0  0  0  0  0  0  0  0  0  0  0  0
  -12.6014   12.6314   64.7542 C   0  0  0  0  0  0  0  0  0  0  0  0
  -10.5939   15.4442   66.2720 C   0  0  0  0  0  0  0  0  0  0  0  0
  -10.9626   16.2160   67.5468 C   0  0  0  0  0  0  0  0  0  0  0  0
  -11.7369   15.2358   68.3863 C   0  0  0  0  0  0  0  0  0  0  0  0
  -11.1012   12.5774   69.3381 N   0  0  0  0  0  0  0  0  0  0  0  0
  -13.0491   13.6809   67.6128 H   0  0  0  0  0  0  0  0  0  0  0  0
  -12.6892   15.1204   65.9018 H   0  0  0  0  0  0  0  0  0  0  0  0
   -9.4837   13.9131   64.5909 H   0  0  0  0  0  0  0  0  0  0  0  0
  -12.9935   10.9205   63.3806 H   0  0  0  0  0  0  0  0  0  0  0  0
  -13.6291   12.6244   65.1971 H   0  0  0  0  0  0  0  0  0  0  0  0
   -9.6393   14.9333   66.3780 H   0  0  0  0  0  0  0  0  0  0  0  0
  -10.5041   16.1409   65.4109 H   0  0  0  0  0  0  0  0  0  0  0  0
  -10.0511   16.5865   68.0596 H   0  0  0  0  0  0  0  0  0  0  0  0
  -11.6415   17.0443   67.2507 H   0  0  0  0  0  0  0  0  0  0  0  0
  -12.7338   15.6205   68.6731 H   0  0  0  0  0  0  0  0  0  0  0  0
  -11.1627   14.9592   69.3196 H   0  0  0  0  0  0  0  0  0  0  0  0
  -10.4672   11.8443   69.7511 H   0  0  0  0  0  0  0  0  0  0  0  0
  -11.7809   12.9945   70.0236 H   0  0  0  0  0  0  0  0  0  0  0  0
  1  2  2  0  0  0  0
  2  3  1  0  0  0  0
  3  4  1  0  0  0  0
  4  5  1  0  0  0  0
  5  6  2  0  0  0  0
  6  7  1  0  0  0  0
  7  8  1  0  0  0  0
  8  9  2  0  0  0  0
  4 10  1  0  0  0  0
 10 11  1  0  0  0  0
 11 12  1  0  0  0  0
  2 13  1  0  0  0  0
 12  3  1  0  0  0  0
  9  5  1  0  0  0  0
  3 14  1  0  0  0  0
  4 15  1  0  0  0  0
  6 16  1  0  0  0  0
  8 17  1  0  0  0  0
  9 18  1  0  0  0  0
 10 19  1  0  0  0  0
 10 20  1  0  0  0  0
 11 21  1  0  0  0  0
 11 22  1  0  0  0  0
 12 23  1  0  0  0  0
 12 24  1  0  0  0  0
 13 25  1  0  0  0  0
 13 26  1  0  0  0  0
M  END
> <Gold.Version>
2022.1.0

> <Gold.Id.Protein>
6LU7|6LU7_protein|mol2

> <Gold.PLP.Fitness>
34.6538

> <Gold.PLP.PLP>
-29.6236

> <Gold.PLP.part.hbond>
-0.9433

> <Gold.PLP.part.metal>
0.0000

> <Gold.PLP.part.buried>
-5.0410

> <Gold.PLP.part.nonpolar>
-24.5364

> <Gold.PLP.part.repulsive>
0.0507

> <Gold.PLP.ligand.clash>
0.0000

> <Gold.PLP.ligand.torsion>
0.1579

> <Gold.PLP.Chemscore.Hbond>
0.0000

> <Gold.PLP.Chemscore.CHOScore>
1.7658

> <Gold.PLP.Chemscore.Metal>
0.0000

> <Gold.Chemscore.Hbonds>
donor molecule, donor type, donor heavy atom, donor atom, acceptor molecule, acceptor atom, score
      L1  C     6    16       P1  1103  1.00
      L1  C     8    17       P1  1289  0.77

> <Gold.PLP.Chemscore.Internal.Correction>
0.0483

> <Gold.Protein.RotatedTorsions>
[ 3973 1471 1470 1467 ] final  170.57 input   60.00 | X-H torsion
[ 3372  414  413  411 ] final  -72.81 input   60.00 | X-H torsion
[ 4268 1114 1113 1110 ] final -168.50 input   59.99 | X-H torsion
[ 4409  924  923  921 ] final -101.87 input   59.99 | X-H torsion
[ 4183 1244 1243 1241 ] final   44.62 input   59.99 | X-H torsion
[ 3800  178  177  174 ] final -116.58 input   60.00 | X-H torsion
[ 3793  171  170  167 ] final   -2.45 input   60.00 | X-H torsion
[ 3576  185  184  181 ] final  -12.23 input   60.00 | X-H torsion
[ 3523  346  345  342 ] final  157.67 input   60.01 | X-H torsion
[ 3515  339  338  335 ] final   69.05 input   60.00 | X-H torsion
[ 3663  154  153  150 ] final  147.15 input   60.00 | X-H torsion
[ 4280 1130 1129 1126 ] final  156.69 input   60.00 | X-H torsion

> <Gold.Protein.ActiveResidues>
 VAL20   THR21   CYS22   GLY23   THR24   THR25   THR26   LEU27   ASN28   PRO39  
 ARG40   HIS41   VAL42   CYS44   THR45   SER46   ASP48   MET49   LEU50   PRO52  
 TYR54   TYR118  ASN119  ILE136  GLY138  SER139  PHE140  LEU141  ASN142  GLY143 
 SER144  CYS145  GLY146  SER147  TYR161  HIS163  HIS164  MET165  GLU166  LEU167 
 PRO168  THR169  GLY170  VAL171  HIS172  ALA173  PHE181  PHE185  VAL186  ASP187 
 ARG188  GLN189  THR190  ALA191  GLN192  ALA193 

> <Gold.Protein.RotatedAtoms>
  -15.2948   17.9260   75.0002 H   0  0  0  0  0  0  0  0  0  0  0  0  # atno 3372 bound_to 414 
   -3.5259   21.8705   74.2552 H   0  0  0  0  0  0  0  0  0  0  0  0  # atno 3515 bound_to 339 
   -1.7880   17.6148   72.9377 H   0  0  0  0  0  0  0  0  0  0  0  0  # atno 3523 bound_to 346 
   -8.7762   25.5510   63.8388 H   0  0  0  0  0  0  0  0  0  0  0  0  # atno 3576 bound_to 185 
   -7.2511   29.9130   64.9913 H   0  0  0  0  0  0  0  0  0  0  0  0  # atno 3663 bound_to 154 
   -3.4972   24.5940   72.2295 H   0  0  0  0  0  0  0  0  0  0  0  0  # atno 3793 bound_to 171 
   -7.2791   22.3173   71.7874 H   0  0  0  0  0  0  0  0  0  0  0  0  # atno 3800 bound_to 178 
  -15.6687    8.0967   78.5495 H   0  0  0  0  0  0  0  0  0  0  0  0  # atno 3973 bound_to 1471
  -21.0140   12.4018   63.7797 H   0  0  0  0  0  0  0  0  0  0  0  0  # atno 4183 bound_to 1244
  -13.2184   15.1165   60.8032 H   0  0  0  0  0  0  0  0  0  0  0  0  # atno 4268 bound_to 1114
  -15.7097   18.6034   58.8686 H   0  0  0  0  0  0  0  0  0  0  0  0  # atno 4280 bound_to 1130
  -11.9608   15.3772   57.7819 H   0  0  0  0  0  0  0  0  0  0  0  0  # atno 4409 bound_to 924 
  -15.3472    7.4817   77.0776 LP  0  0  0  0  0  0  0  0  0  0  0  0  # atno 4696 bound_to 1471
  -15.0161    9.0477   77.4016 LP  0  0  0  0  0  0  0  0  0  0  0  0  # atno 4697 bound_to 1471
  -14.9392   16.9467   76.2502 LP  0  0  0  0  0  0  0  0  0  0  0  0  # atno 4731 bound_to 414 
  -13.8578   18.0640   75.7513 LP  0  0  0  0  0  0  0  0  0  0  0  0  # atno 4732 bound_to 414 
  -14.1388   16.1978   61.5980 LP  0  0  0  0  0  0  0  0  0  0  0  0  # atno 4733 bound_to 1114
  -12.5579   16.0345   61.9731 LP  0  0  0  0  0  0  0  0  0  0  0  0  # atno 4734 bound_to 1114
  -10.4329   14.9100   57.4734 LP  0  0  0  0  0  0  0  0  0  0  0  0  # atno 4763 bound_to 924 
  -11.4661   15.1981   56.2421 LP  0  0  0  0  0  0  0  0  0  0  0  0  # atno 4764 bound_to 924 
  -20.3676   13.6930   64.5299 LP  0  0  0  0  0  0  0  0  0  0  0  0  # atno 4771 bound_to 1244
  -19.9811   13.3694   62.9767 LP  0  0  0  0  0  0  0  0  0  0  0  0  # atno 4772 bound_to 1244
   -7.2823   23.7796   72.5014 LP  0  0  0  0  0  0  0  0  0  0  0  0  # atno 4775 bound_to 178 
   -6.0513   23.3508   71.5178 LP  0  0  0  0  0  0  0  0  0  0  0  0  # atno 4776 bound_to 178 
   -1.9415   24.5969   72.7067 LP  0  0  0  0  0  0  0  0  0  0  0  0  # atno 4779 bound_to 171 
   -2.5168   23.3699   71.7955 LP  0  0  0  0  0  0  0  0  0  0  0  0  # atno 4780 bound_to 171 
   -7.3614   25.4316   63.0437 LP  0  0  0  0  0  0  0  0  0  0  0  0  # atno 4783 bound_to 185 
   -7.8081   26.8528   63.7123 LP  0  0  0  0  0  0  0  0  0  0  0  0  # atno 4784 bound_to 185 
   -3.2095   18.3895   73.1021 LP  0  0  0  0  0  0  0  0  0  0  0  0  # atno 4785 bound_to 346 
   -3.1729   16.8526   72.5516 LP  0  0  0  0  0  0  0  0  0  0  0  0  # atno 4786 bound_to 346 
   -3.2837   20.4377   74.9875 LP  0  0  0  0  0  0  0  0  0  0  0  0  # atno 4787 bound_to 339 
   -2.6561   21.8021   75.6288 LP  0  0  0  0  0  0  0  0  0  0  0  0  # atno 4788 bound_to 339 
   -8.5806   29.0100   65.2465 LP  0  0  0  0  0  0  0  0  0  0  0  0  # atno 4797 bound_to 154 
   -7.0972   28.3697   65.4839 LP  0  0  0  0  0  0  0  0  0  0  0  0  # atno 4798 bound_to 154 

$$$$
