#       Name:                unknown
#       Creating user name   williammccorkindale
#       Creation time:       Tue Jun  7 14:55:39 2022


#       File generated by GOLD software.
#

@<TRIPOS>MOLECULE
unknown|prepared_Mpro-x0991|mol2|1|dock2
    14    13     1
SMALL
NO_CHARGES


@<TRIPOS>ATOM
      1 C1         -12.6474  16.1272  73.7759 C.3            1 RES1               0.0000
      2 C2         -12.4314  14.9959  72.8008 C.3            1 RES1               0.0000
      3 C3         -13.4648  15.0569  71.7537 C.2            1 RES1               0.0000
      4 N4         -14.6930  15.0089  72.1007 N.2            1 RES1               0.0000
      5 N5         -13.1394  15.1685  70.3573 N.pl3          1 RES1               0.0000
      6 H6         -13.3651  15.7928  74.5534 H              1 RES1               0.0000
      7 H7         -13.1099  17.0148  73.2644 H              1 RES1               0.0000
      8 H8         -11.6977  16.5087  74.2114 H              1 RES1               0.0000
      9 H9         -11.4238  15.0232  72.3369 H              1 RES1               0.0000
     10 H10        -12.5891  14.0211  73.3446 H              1 RES1               0.0000
     11 H11        -15.0116  14.9295  73.0741 H              1 RES1               0.0000
     12 H12        -12.1309  15.2041  70.1235 H              1 RES1               0.0000
     13 H13        -13.9210  15.2068  69.6677 H              1 RES1               0.0000
     14 ****       -15.3864  15.0511  71.3813 LP             1 RES1               0.0000
@<TRIPOS>BOND
    1    1    2 1     
    2    2    3 1     
    3    3    4 2     
    4    3    5 1     
    5    1    6 1     
    6    1    7 1     
    7    1    8 1     
    8    2    9 1     
    9    2   10 1     
   10    4   11 1     
   11    5   12 1     
   12    5   13 1     
   13    4   14 1     
@<TRIPOS>SUBSTRUCTURE
      1 RES1           1
@<TRIPOS>SET
LONE_PAIRS      STATIC     ATOMS    <user>   **** ""
1 14
DONOR_HYDROGENS      STATIC     ATOMS    <user>   **** ""
3 11 12 13
ATOM$BLUE        STATIC     ATOMS    COLORGROUP SYSTEM
1 14
ATOM$RED        STATIC     ATOMS    COLORGROUP SYSTEM
3 11 12 13
@<TRIPOS>COMMENT
> <Gold.Version>
2022.1.0

> <Gold.Id.Protein>
6LU7|6LU7_protein|mol2

> <Gold.Protein.RotatedTorsions>
[ 3973 1471 1470 1467 ] final  164.84 input   60.00 | X-H torsion
[ 3372  414  413  411 ] final  132.06 input   60.00 | X-H torsion
[ 4268 1114 1113 1110 ] final   82.83 input   59.99 | X-H torsion
[ 4409  924  923  921 ] final   64.25 input   59.99 | X-H torsion
[ 4183 1244 1243 1241 ] final   71.56 input   59.99 | X-H torsion
[ 3800  178  177  174 ] final  -70.23 input   60.00 | X-H torsion
[ 3793  171  170  167 ] final -151.61 input   60.00 | X-H torsion
[ 3576  185  184  181 ] final  175.52 input   60.00 | X-H torsion
[ 3523  346  345  342 ] final  143.20 input   60.01 | X-H torsion
[ 3515  339  338  335 ] final  140.24 input   60.00 | X-H torsion
[ 3663  154  153  150 ] final  110.60 input   60.00 | X-H torsion
[ 4280 1130 1129 1126 ] final  -24.16 input   60.00 | X-H torsion

> <Gold.Protein.ActiveResidues>
 VAL20   THR21   CYS22   GLY23   THR24   THR25   THR26   LEU27   ASN28   PRO39  
 ARG40   HIS41   VAL42   CYS44   THR45   SER46   ASP48   MET49   LEU50   PRO52  
 TYR54   TYR118  ASN119  ILE136  GLY138  SER139  PHE140  LEU141  ASN142  GLY143 
 SER144  CYS145  GLY146  SER147  TYR161  HIS163  HIS164  MET165  GLU166  LEU167 
 PRO168  THR169  GLY170  VAL171  HIS172  ALA173  PHE181  PHE185  VAL186  ASP187 
 ARG188  GLN189  THR190  ALA191  GLN192  ALA193 

> <Gold.Protein.RotatedAtoms>
  -14.4197   17.1250   76.3916 H   0  0  0  0  0  0  0  0  0  0  0  0  # atno 3372 bound_to 414 
   -2.9356   22.2728   75.0783 H   0  0  0  0  0  0  0  0  0  0  0  0  # atno 3515 bound_to 339 
   -1.8229   17.8351   73.0143 H   0  0  0  0  0  0  0  0  0  0  0  0  # atno 3523 bound_to 346 
   -7.1627   26.2232   63.1797 H   0  0  0  0  0  0  0  0  0  0  0  0  # atno 3576 bound_to 185 
   -7.8344   29.9717   64.9594 H   0  0  0  0  0  0  0  0  0  0  0  0  # atno 3663 bound_to 154 
   -1.7600   24.2012   72.5216 H   0  0  0  0  0  0  0  0  0  0  0  0  # atno 3793 bound_to 171 
   -6.6425   22.3967   71.4248 H   0  0  0  0  0  0  0  0  0  0  0  0  # atno 3800 bound_to 178 
  -15.6860    8.0076   78.5266 H   0  0  0  0  0  0  0  0  0  0  0  0  # atno 3973 bound_to 1471
  -20.8531   12.3993   63.3743 H   0  0  0  0  0  0  0  0  0  0  0  0  # atno 4183 bound_to 1244
  -14.1906   16.0842   61.4605 H   0  0  0  0  0  0  0  0  0  0  0  0  # atno 4268 bound_to 1114
  -16.2483   20.3910   58.7278 H   0  0  0  0  0  0  0  0  0  0  0  0  # atno 4280 bound_to 1130
  -10.7766   14.9960   56.4012 H   0  0  0  0  0  0  0  0  0  0  0  0  # atno 4409 bound_to 924 
  -15.3093    7.5402   77.0141 LP  0  0  0  0  0  0  0  0  0  0  0  0  # atno 4696 bound_to 1471
  -15.0366    9.0789   77.4881 LP  0  0  0  0  0  0  0  0  0  0  0  0  # atno 4697 bound_to 1471
  -14.1302   18.3133   75.3183 LP  0  0  0  0  0  0  0  0  0  0  0  0  # atno 4731 bound_to 414 
  -15.5481   17.5041   75.2821 LP  0  0  0  0  0  0  0  0  0  0  0  0  # atno 4732 bound_to 414 
  -12.6769   16.1530   62.0536 LP  0  0  0  0  0  0  0  0  0  0  0  0  # atno 4733 bound_to 1114
  -13.0406   15.1047   60.8555 LP  0  0  0  0  0  0  0  0  0  0  0  0  # atno 4734 bound_to 1114
  -12.1882   15.4305   57.0841 LP  0  0  0  0  0  0  0  0  0  0  0  0  # atno 4763 bound_to 924 
  -10.9035   15.0614   58.0221 LP  0  0  0  0  0  0  0  0  0  0  0  0  # atno 4764 bound_to 924 
  -20.6478   13.3795   64.6569 LP  0  0  0  0  0  0  0  0  0  0  0  0  # atno 4771 bound_to 1244
  -19.8629   13.6854   63.2580 LP  0  0  0  0  0  0  0  0  0  0  0  0  # atno 4772 bound_to 1244
   -7.6687   23.1491   72.4392 LP  0  0  0  0  0  0  0  0  0  0  0  0  # atno 4775 bound_to 178 
   -6.3061   23.9014   71.9453 LP  0  0  0  0  0  0  0  0  0  0  0  0  # atno 4776 bound_to 178 
   -2.9737   23.4732   71.7186 LP  0  0  0  0  0  0  0  0  0  0  0  0  # atno 4779 bound_to 171 
   -3.2343   24.8892   72.4892 LP  0  0  0  0  0  0  0  0  0  0  0  0  # atno 4780 bound_to 171 
   -8.5253   26.5541   64.0053 LP  0  0  0  0  0  0  0  0  0  0  0  0  # atno 4783 bound_to 185 
   -8.2692   25.0534   63.4145 LP  0  0  0  0  0  0  0  0  0  0  0  0  # atno 4784 bound_to 185 
   -3.3949   18.2550   73.0390 LP  0  0  0  0  0  0  0  0  0  0  0  0  # atno 4785 bound_to 346 
   -2.9525   16.7652   72.5375 LP  0  0  0  0  0  0  0  0  0  0  0  0  # atno 4786 bound_to 346 
   -3.6725   21.1094   74.2115 LP  0  0  0  0  0  0  0  0  0  0  0  0  # atno 4787 bound_to 339 
   -2.8617   20.7253   75.5759 LP  0  0  0  0  0  0  0  0  0  0  0  0  # atno 4788 bound_to 339 
   -8.3440   28.4952   65.4158 LP  0  0  0  0  0  0  0  0  0  0  0  0  # atno 4797 bound_to 154 
   -6.7463   28.8254   65.3467 LP  0  0  0  0  0  0  0  0  0  0  0  0  # atno 4798 bound_to 154 

> <Gold.Score>
     Score     S(PLP)   S(hbond)     S(cho)   S(metal)  DE(clash)   DE(tors)     intcor
     23.04     -20.05       1.00       0.00       0.00       0.00       0.00       0.00

> <Gold.PLP.Fitness>
23.0383

> <Gold.PLP.PLP>
-20.0483

> <Gold.PLP.part.hbond>
-1.0000

> <Gold.PLP.part.metal>
0.0000

> <Gold.PLP.part.buried>
-3.7856

> <Gold.PLP.part.nonpolar>
-15.7165

> <Gold.PLP.part.repulsive>
0.0717

> <Gold.PLP.ligand.clash>
0.0000

> <Gold.PLP.ligand.torsion>
0.0050

> <Gold.PLP.Chemscore.Hbond>
1.0000

> <Gold.PLP.Chemscore.CHOScore>
0.0000

> <Gold.PLP.Chemscore.Metal>
0.0000

> <Gold.Chemscore.Hbonds>
donor molecule, donor type, donor heavy atom, donor atom, acceptor molecule, acceptor atom, score
      L1  H     5    13       P1  1266  1.00

> <Gold.PLP.Chemscore.Internal.Correction>
0.0000

