unknown|prepared_Mpro-x0195|sdf|1|dock2
  -GOLD-   5 72214353D 1   1.00000     0.00000

 29 30  0  0  0  0  0  0  0  0  1 V2000
  -12.5756   11.3397   71.0415 C   0  0  0  0  0  0  0  0  0  0  0  0
  -12.7963   12.7711   71.1659 N   0  0  0  0  0  0  0  0  0  0  0  0
  -13.6664   13.1980   72.2417 C   0  0  0  0  0  0  0  0  0  0  0  0
  -13.6050   14.6448   72.5573 C   0  0  0  0  0  0  0  0  0  0  0  0
  -12.4406   15.3921   71.9972 C   0  0  0  0  0  0  0  0  0  0  0  0
  -11.9985   14.9930   70.6665 C   0  0  0  0  0  0  0  0  0  0  0  0
  -11.4079   15.9162   69.8312 C   0  0  0  0  0  0  0  0  0  0  0  0
  -11.0069   15.4856   68.5831 C   0  0  0  0  0  0  0  0  0  0  0  0
  -11.1874   14.1681   68.1719 C   0  0  0  0  0  0  0  0  0  0  0  0
  -11.7789   13.2538   69.0152 C   0  0  0  0  0  0  0  0  0  0  0  0
  -12.1833   13.6851   70.2717 C   0  0  0  0  0  0  0  0  0  0  0  0
  -10.6842   13.6220   66.6021 S   0  0  0  0  0  0  0  0  0  0  0  0
  -11.4160   14.4189   65.5396 O   0  0  0  0  0  0  0  0  0  0  0  0
  -11.0141   12.1857   66.4567 O   0  0  0  0  0  0  0  0  0  0  0  0
   -9.0037   13.9427   66.4015 N   0  0  0  0  0  0  0  0  0  0  0  0
  -13.2246   10.8881   70.2627 H   0  0  0  0  0  0  0  0  0  0  0  0
  -12.7358   10.8144   72.0109 H   0  0  0  0  0  0  0  0  0  0  0  0
  -11.5304   11.1007   70.7363 H   0  0  0  0  0  0  0  0  0  0  0  0
  -13.3682   12.6185   73.1414 H   0  0  0  0  0  0  0  0  0  0  0  0
  -14.6917   12.8602   71.9787 H   0  0  0  0  0  0  0  0  0  0  0  0
  -13.6190   14.8115   73.6552 H   0  0  0  0  0  0  0  0  0  0  0  0
  -14.5331   15.1262   72.1690 H   0  0  0  0  0  0  0  0  0  0  0  0
  -11.5559   15.3314   72.6828 H   0  0  0  0  0  0  0  0  0  0  0  0
  -12.6840   16.4911   71.9605 H   0  0  0  0  0  0  0  0  0  0  0  0
  -11.2707   16.9366   70.1560 H   0  0  0  0  0  0  0  0  0  0  0  0
  -10.5353   16.1473   67.8674 H   0  0  0  0  0  0  0  0  0  0  0  0
  -11.9472   12.2298   68.7643 H   0  0  0  0  0  0  0  0  0  0  0  0
   -8.4251   13.5140   67.1597 H   0  0  0  0  0  0  0  0  0  0  0  0
   -8.6655   13.6683   65.4560 H   0  0  0  0  0  0  0  0  0  0  0  0
  1  2  1  0  0  0  0
  2  3  1  0  0  0  0
  3  4  1  0  0  0  0
  4  5  1  0  0  0  0
  5  6  1  0  0  0  0
  6  7  2  0  0  0  0
  7  8  1  0  0  0  0
  8  9  2  0  0  0  0
  9 10  1  0  0  0  0
 10 11  2  0  0  0  0
  9 12  1  0  0  0  0
 12 13  2  0  0  0  0
 12 14  2  0  0  0  0
 12 15  1  0  0  0  0
 11  2  1  0  0  0  0
  6 11  1  0  0  0  0
  1 16  1  0  0  0  0
  1 17  1  0  0  0  0
  1 18  1  0  0  0  0
  3 19  1  0  0  0  0
  3 20  1  0  0  0  0
  4 21  1  0  0  0  0
  4 22  1  0  0  0  0
  5 23  1  0  0  0  0
  5 24  1  0  0  0  0
  7 25  1  0  0  0  0
  8 26  1  0  0  0  0
 10 27  1  0  0  0  0
 15 28  1  0  0  0  0
 15 29  1  0  0  0  0
M  END
> <Gold.Version>
2022.1.0

> <Gold.Id.Protein>
6LU7|6LU7_protein|mol2

> <Gold.PLP.Fitness>
41.4867

> <Gold.PLP.PLP>
-39.0139

> <Gold.PLP.part.hbond>
-0.9276

> <Gold.PLP.part.metal>
0.0000

> <Gold.PLP.part.buried>
-5.9669

> <Gold.PLP.part.nonpolar>
-33.0808

> <Gold.PLP.part.repulsive>
0.1059

> <Gold.PLP.ligand.clash>
0.0000

> <Gold.PLP.ligand.torsion>
1.0854

> <Gold.PLP.Chemscore.Hbond>
0.8288

> <Gold.PLP.Chemscore.CHOScore>
0.0000

> <Gold.PLP.Chemscore.Metal>
0.0000

> <Gold.Chemscore.Hbonds>
donor molecule, donor type, donor heavy atom, donor atom, acceptor molecule, acceptor atom, score
      L1  H    15    29       P1  1103  0.83

> <Gold.PLP.Chemscore.Internal.Correction>
2.1572

> <Gold.Protein.RotatedTorsions>
[ 3973 1471 1470 1467 ] final  -71.16 input   60.00 | X-H torsion
[ 3372  414  413  411 ] final  -58.17 input   60.00 | X-H torsion
[ 4268 1114 1113 1110 ] final  167.91 input   59.99 | X-H torsion
[ 4409  924  923  921 ] final   82.10 input   59.99 | X-H torsion
[ 4183 1244 1243 1241 ] final -105.49 input   59.99 | X-H torsion
[ 3800  178  177  174 ] final -113.97 input   60.00 | X-H torsion
[ 3793  171  170  167 ] final -102.56 input   60.00 | X-H torsion
[ 3576  185  184  181 ] final -158.04 input   60.00 | X-H torsion
[ 3523  346  345  342 ] final  -61.60 input   60.01 | X-H torsion
[ 3515  339  338  335 ] final  -59.85 input   60.00 | X-H torsion
[ 3663  154  153  150 ] final  131.41 input   60.00 | X-H torsion
[ 4280 1130 1129 1126 ] final  -18.34 input   60.00 | X-H torsion

> <Gold.Protein.ActiveResidues>
 VAL20   THR21   CYS22   GLY23   THR24   THR25   THR26   LEU27   ASN28   PRO39  
 ARG40   HIS41   VAL42   CYS44   THR45   SER46   ASP48   MET49   LEU50   PRO52  
 TYR54   TYR118  ASN119  ILE136  GLY138  SER139  PHE140  LEU141  ASN142  GLY143 
 SER144  CYS145  GLY146  SER147  TYR161  HIS163  HIS164  MET165  GLU166  LEU167 
 PRO168  THR169  GLY170  VAL171  HIS172  ALA173  PHE181  PHE185  VAL186  ASP187 
 ARG188  GLN189  THR190  ALA191  GLN192  ALA193 

> <Gold.Protein.RotatedAtoms>
  -15.1188   18.0788   74.9496 H   0  0  0  0  0  0  0  0  0  0  0  0  # atno 3372 bound_to 414 
   -3.2060   20.4494   75.1105 H   0  0  0  0  0  0  0  0  0  0  0  0  # atno 3515 bound_to 339 
   -3.4307   17.0635   72.6097 H   0  0  0  0  0  0  0  0  0  0  0  0  # atno 3523 bound_to 346 
   -7.1831   25.8109   63.0659 H   0  0  0  0  0  0  0  0  0  0  0  0  # atno 3576 bound_to 185 
   -7.4965   29.9821   64.9638 H   0  0  0  0  0  0  0  0  0  0  0  0  # atno 3663 bound_to 154 
   -2.1806   24.8099   72.7591 H   0  0  0  0  0  0  0  0  0  0  0  0  # atno 3793 bound_to 171 
   -7.2465   22.3070   71.7619 H   0  0  0  0  0  0  0  0  0  0  0  0  # atno 3800 bound_to 178 
  -15.0221    9.0515   77.4300 H   0  0  0  0  0  0  0  0  0  0  0  0  # atno 3973 bound_to 1471
  -20.0840   13.8983   64.1897 H   0  0  0  0  0  0  0  0  0  0  0  0  # atno 4183 bound_to 1244
  -13.5882   15.2096   60.7716 H   0  0  0  0  0  0  0  0  0  0  0  0  # atno 4268 bound_to 1114
  -16.2097   20.4050   58.8136 H   0  0  0  0  0  0  0  0  0  0  0  0  # atno 4280 bound_to 1130
  -10.5754   14.9392   56.6030 H   0  0  0  0  0  0  0  0  0  0  0  0  # atno 4409 bound_to 924 
  -15.6787    8.0692   78.5489 LP  0  0  0  0  0  0  0  0  0  0  0  0  # atno 4696 bound_to 1471
  -15.3357    7.4987   77.0578 LP  0  0  0  0  0  0  0  0  0  0  0  0  # atno 4697 bound_to 1471
  -15.1415   16.9493   76.1208 LP  0  0  0  0  0  0  0  0  0  0  0  0  # atno 4731 bound_to 414 
  -13.8328   17.9075   75.9318 LP  0  0  0  0  0  0  0  0  0  0  0  0  # atno 4732 bound_to 414 
  -13.9166   16.3764   61.8572 LP  0  0  0  0  0  0  0  0  0  0  0  0  # atno 4733 bound_to 1114
  -12.4077   15.7621   61.7458 LP  0  0  0  0  0  0  0  0  0  0  0  0  # atno 4734 bound_to 1114
  -12.1219   15.4054   56.8002 LP  0  0  0  0  0  0  0  0  0  0  0  0  # atno 4763 bound_to 924 
  -11.1725   15.1437   58.1028 LP  0  0  0  0  0  0  0  0  0  0  0  0  # atno 4764 bound_to 924 
  -20.2329   12.9642   62.8656 LP  0  0  0  0  0  0  0  0  0  0  0  0  # atno 4771 bound_to 1244
  -21.0523   12.5911   64.2280 LP  0  0  0  0  0  0  0  0  0  0  0  0  # atno 4772 bound_to 1244
   -7.3142   23.7516   72.5079 LP  0  0  0  0  0  0  0  0  0  0  0  0  # atno 4775 bound_to 178 
   -6.0522   23.3892   71.5370 LP  0  0  0  0  0  0  0  0  0  0  0  0  # atno 4776 bound_to 178 
   -2.2182   23.4189   71.9156 LP  0  0  0  0  0  0  0  0  0  0  0  0  # atno 4779 bound_to 171 
   -3.5661   24.3305   72.0531 LP  0  0  0  0  0  0  0  0  0  0  0  0  # atno 4780 bound_to 171 
   -8.1830   26.7917   63.8942 LP  0  0  0  0  0  0  0  0  0  0  0  0  # atno 4783 bound_to 185 
   -8.5909   25.2310   63.6402 LP  0  0  0  0  0  0  0  0  0  0  0  0  # atno 4784 bound_to 185 
   -1.8346   17.3017   72.8188 LP  0  0  0  0  0  0  0  0  0  0  0  0  # atno 4785 bound_to 346 
   -2.8936   18.4956   73.1652 LP  0  0  0  0  0  0  0  0  0  0  0  0  # atno 4786 bound_to 346 
   -2.6838   21.9252   75.5547 LP  0  0  0  0  0  0  0  0  0  0  0  0  # atno 4787 bound_to 339 
   -3.5781   21.7459   74.2002 LP  0  0  0  0  0  0  0  0  0  0  0  0  # atno 4788 bound_to 339 
   -8.5217   28.7708   65.3240 LP  0  0  0  0  0  0  0  0  0  0  0  0  # atno 4797 bound_to 154 
   -6.9090   28.5393   65.4342 LP  0  0  0  0  0  0  0  0  0  0  0  0  # atno 4798 bound_to 154 

$$$$
