#       Name:                unknown
#       Creating user name   williammccorkindale
#       Creation time:       Tue Jun  7 14:55:40 2022


#       File generated by GOLD software.
#

@<TRIPOS>MOLECULE
unknown|prepared_Mpro-x0946|mol2|1|dock2
    18    18     1
SMALL
NO_CHARGES


@<TRIPOS>ATOM
      1 Br1        -13.4975  16.1993  73.2977 Br             1 RES1               0.0000
      2 C2         -13.0361  14.6489  72.2960 C.ar           1 RES1               0.0000
      3 C3         -13.5553  13.3920  72.5844 C.ar           1 RES1               0.0000
      4 C4         -13.1911  12.2918  71.8282 C.ar           1 RES1               0.0000
      5 C5         -12.3094  12.4000  70.7722 C.ar           1 RES1               0.0000
      6 S6         -11.8676  10.9902  69.8340 S.o2           1 RES1               0.0000
      7 N7         -10.1308  10.8890  69.8200 N.3            1 RES1               0.0000
      8 O8         -12.3986   9.7412  70.4183 O.2            1 RES1               0.0000
      9 O9         -12.3015  11.2295  68.4281 O.2            1 RES1               0.0000
     10 C10        -11.7920  13.6466  70.4831 C.ar           1 RES1               0.0000
     11 C11        -12.1533  14.7670  71.2414 C.ar           1 RES1               0.0000
     12 H12        -14.2439  13.3180  73.4120 H              1 RES1               0.0000
     13 H13        -13.6032  11.3091  72.0612 H              1 RES1               0.0000
     14 H14         -9.8505  10.9846  68.8044 H              1 RES1               0.0000
     15 H15         -9.8476   9.9407  70.1296 H              1 RES1               0.0000
     16 H16        -11.1053  13.7090  69.6546 H              1 RES1               0.0000
     17 H17        -11.7370  15.7324  70.9983 H              1 RES1               0.0000
     18 ****        -9.7150  11.5808  70.4103 LP             1 RES1               0.0000
@<TRIPOS>BOND
    1    1    2 1     
    2    2    3 ar    
    3    3    4 ar    
    4    4    5 ar    
    5    5    6 1     
    6    6    7 1     
    7    6    8 2     
    8    6    9 2     
    9    5   10 ar    
   10   10   11 ar    
   11   11    2 ar    
   12    3   12 1     
   13    4   13 1     
   14    7   14 1     
   15    7   15 1     
   16   10   16 1     
   17   11   17 1     
   18    7   18 1     
@<TRIPOS>SUBSTRUCTURE
      1 RES1           1
@<TRIPOS>SET
LONE_PAIRS      STATIC     ATOMS    <user>   **** ""
3 18 8 9
DONOR_HYDROGENS      STATIC     ATOMS    <user>   **** ""
2 14 15
ATOM$BLUE        STATIC     ATOMS    COLORGROUP SYSTEM
3 18 8 9
ATOM$RED        STATIC     ATOMS    COLORGROUP SYSTEM
2 14 15
@<TRIPOS>COMMENT
> <Gold.Version>
2022.1.0

> <Gold.Id.Protein>
6LU7|6LU7_protein|mol2

> <Gold.Protein.RotatedTorsions>
[ 3973 1471 1470 1467 ] final  171.46 input   60.00 | X-H torsion
[ 3372  414  413  411 ] final  176.79 input   60.00 | X-H torsion
[ 4268 1114 1113 1110 ] final -115.27 input   59.99 | X-H torsion
[ 4409  924  923  921 ] final   65.09 input   59.99 | X-H torsion
[ 4183 1244 1243 1241 ] final  171.24 input   59.99 | X-H torsion
[ 3800  178  177  174 ] final   43.22 input   60.00 | X-H torsion
[ 3793  171  170  167 ] final   12.46 input   60.00 | X-H torsion
[ 3576  185  184  181 ] final -133.91 input   60.00 | X-H torsion
[ 3523  346  345  342 ] final  163.96 input   60.01 | X-H torsion
[ 3515  339  338  335 ] final  103.88 input   60.00 | X-H torsion
[ 3663  154  153  150 ] final -136.92 input   60.00 | X-H torsion
[ 4280 1130 1129 1126 ] final  -60.41 input   60.00 | X-H torsion

> <Gold.Protein.ActiveResidues>
 VAL20   THR21   CYS22   GLY23   THR24   THR25   THR26   LEU27   ASN28   PRO39  
 ARG40   HIS41   VAL42   CYS44   THR45   SER46   ASP48   MET49   LEU50   PRO52  
 TYR54   TYR118  ASN119  ILE136  GLY138  SER139  PHE140  LEU141  ASN142  GLY143 
 SER144  CYS145  GLY146  SER147  TYR161  HIS163  HIS164  MET165  GLU166  LEU167 
 PRO168  THR169  GLY170  VAL171  HIS172  ALA173  PHE181  PHE185  VAL186  ASP187 
 ARG188  GLN189  THR190  ALA191  GLN192  ALA193 

> <Gold.Protein.RotatedAtoms>
  -15.0728   16.9497   76.1671 H   0  0  0  0  0  0  0  0  0  0  0  0  # atno 3372 bound_to 414 
   -3.2544   22.2279   74.5908 H   0  0  0  0  0  0  0  0  0  0  0  0  # atno 3515 bound_to 339 
   -1.7913   17.5183   72.9028 H   0  0  0  0  0  0  0  0  0  0  0  0  # atno 3523 bound_to 346 
   -7.3486   25.4567   63.0472 H   0  0  0  0  0  0  0  0  0  0  0  0  # atno 3576 bound_to 185 
   -6.7221   28.9416   65.3126 H   0  0  0  0  0  0  0  0  0  0  0  0  # atno 3663 bound_to 154 
   -3.5536   24.3994   72.0955 H   0  0  0  0  0  0  0  0  0  0  0  0  # atno 3793 bound_to 171 
   -6.2475   23.8425   71.8769 H   0  0  0  0  0  0  0  0  0  0  0  0  # atno 3800 bound_to 178 
  -15.6657    8.1106   78.5523 H   0  0  0  0  0  0  0  0  0  0  0  0  # atno 3973 bound_to 1471
  -19.9465   13.4536   63.0362 H   0  0  0  0  0  0  0  0  0  0  0  0  # atno 4183 bound_to 1244
  -12.5270   15.3088   61.2373 H   0  0  0  0  0  0  0  0  0  0  0  0  # atno 4268 bound_to 1114
  -16.4120   20.1096   58.2448 H   0  0  0  0  0  0  0  0  0  0  0  0  # atno 4280 bound_to 1130
  -10.7658   14.9930   56.4091 H   0  0  0  0  0  0  0  0  0  0  0  0  # atno 4409 bound_to 924 
  -15.3530    7.4733   77.0880 LP  0  0  0  0  0  0  0  0  0  0  0  0  # atno 4696 bound_to 1471
  -15.0133    9.0421   77.3884 LP  0  0  0  0  0  0  0  0  0  0  0  0  # atno 4697 bound_to 1471
  -13.8351   17.9638   75.8710 LP  0  0  0  0  0  0  0  0  0  0  0  0  # atno 4731 bound_to 414 
  -15.1856   18.0300   74.9554 LP  0  0  0  0  0  0  0  0  0  0  0  0  # atno 4732 bound_to 414 
  -14.1096   15.6029   60.9989 LP  0  0  0  0  0  0  0  0  0  0  0  0  # atno 4733 bound_to 1114
  -13.2834   16.4357   62.1350 LP  0  0  0  0  0  0  0  0  0  0  0  0  # atno 4734 bound_to 1114
  -12.1870   15.4299   57.0703 LP  0  0  0  0  0  0  0  0  0  0  0  0  # atno 4763 bound_to 924 
  -10.9155   15.0651   58.0279 LP  0  0  0  0  0  0  0  0  0  0  0  0  # atno 4764 bound_to 924 
  -20.9866   12.3786   63.6770 LP  0  0  0  0  0  0  0  0  0  0  0  0  # atno 4771 bound_to 1244
  -20.4370   13.6245   64.5783 LP  0  0  0  0  0  0  0  0  0  0  0  0  # atno 4772 bound_to 1244
   -6.7310   22.3459   71.4589 LP  0  0  0  0  0  0  0  0  0  0  0  0  # atno 4775 bound_to 178 
   -7.6415   23.2485   72.4703 LP  0  0  0  0  0  0  0  0  0  0  0  0  # atno 4776 bound_to 178 
   -2.1121   24.7652   72.7558 LP  0  0  0  0  0  0  0  0  0  0  0  0  # atno 4779 bound_to 171 
   -2.2894   23.3976   71.8812 LP  0  0  0  0  0  0  0  0  0  0  0  0  # atno 4780 bound_to 171 
   -7.8323   26.8544   63.7257 LP  0  0  0  0  0  0  0  0  0  0  0  0  # atno 4783 bound_to 185 
   -8.7749   25.5249   63.8275 LP  0  0  0  0  0  0  0  0  0  0  0  0  # atno 4784 bound_to 185 
   -3.1187   18.4331   73.1250 LP  0  0  0  0  0  0  0  0  0  0  0  0  # atno 4785 bound_to 346 
   -3.2605   16.9061   72.5639 LP  0  0  0  0  0  0  0  0  0  0  0  0  # atno 4786 bound_to 346 
   -3.5477   20.6286   74.5267 LP  0  0  0  0  0  0  0  0  0  0  0  0  # atno 4787 bound_to 339 
   -2.6655   21.2513   75.7516 LP  0  0  0  0  0  0  0  0  0  0  0  0  # atno 4788 bound_to 339 
   -7.9548   29.9447   64.9630 LP  0  0  0  0  0  0  0  0  0  0  0  0  # atno 4797 bound_to 154 
   -8.2557   28.4134   65.4438 LP  0  0  0  0  0  0  0  0  0  0  0  0  # atno 4798 bound_to 154 

> <Gold.Score>
     Score     S(PLP)   S(hbond)     S(cho)   S(metal)  DE(clash)   DE(tors)     intcor
     33.90     -30.95       1.00       0.00       0.00       0.00       1.08       2.11

> <Gold.PLP.Fitness>
33.9007

> <Gold.PLP.PLP>
-30.9471

> <Gold.PLP.part.hbond>
-2.0000

> <Gold.PLP.part.metal>
0.0000

> <Gold.PLP.part.buried>
-2.5738

> <Gold.PLP.part.nonpolar>
-27.7845

> <Gold.PLP.part.repulsive>
0.7413

> <Gold.PLP.ligand.clash>
0.0000

> <Gold.PLP.ligand.torsion>
1.0766

> <Gold.PLP.Chemscore.Hbond>
1.0000

> <Gold.PLP.Chemscore.CHOScore>
0.0000

> <Gold.PLP.Chemscore.Metal>
0.0000

> <Gold.Chemscore.Hbonds>
donor molecule, donor type, donor heavy atom, donor atom, acceptor molecule, acceptor atom, score
      P1  H  1281  4132       L1     9  1.00

> <Gold.PLP.Chemscore.Internal.Correction>
2.1069

