unknown|prepared_Mpro-x2193|sdf|1|dock3
  -GOLD-   5 72214353D 1   1.00000     0.00000

 32 33  0  0  0  0  0  0  0  0  1 V2000
  -10.2881   19.4237   66.4554 C   0  0  0  0  0  0  0  0  0  0  0  0
   -9.8434   17.6992   66.4068 S   0  0  0  0  0  0  0  0  0  0  0  0
   -8.3492   17.5522   66.3522 O   0  0  0  0  0  0  0  0  0  0  0  0
  -10.4578   17.0370   65.1819 O   0  0  0  0  0  0  0  0  0  0  0  0
  -10.5179   16.9354   67.8352 C   0  0  0  0  0  0  0  0  0  0  0  0
  -10.2323   17.4061   69.0979 C   0  0  0  0  0  0  0  0  0  0  0  0
  -10.7566   16.8133   70.2244 C   0  0  0  0  0  0  0  0  0  0  0  0
  -11.5974   15.7144   70.1465 C   0  0  0  0  0  0  0  0  0  0  0  0
  -11.8901   15.2362   68.8949 C   0  0  0  0  0  0  0  0  0  0  0  0
  -11.3534   15.8433   67.7517 C   0  0  0  0  0  0  0  0  0  0  0  0
  -12.1577   15.1090   71.2885 N   0  0  0  0  0  0  0  0  0  0  0  0
  -11.6958   15.4547   72.6042 C   0  0  0  0  0  0  0  0  0  0  0  0
  -12.8989   15.8938   73.4283 C   0  0  0  0  0  0  0  0  0  0  0  0
  -13.9154   14.8948   73.3866 N   0  0  0  0  0  0  0  0  0  0  0  0
  -14.3647   14.6058   72.0353 C   0  0  0  0  0  0  0  0  0  0  0  0
  -13.2025   14.1056   71.1991 C   0  0  0  0  0  0  0  0  0  0  0  0
   -9.4021   20.0218   66.7995 H   0  0  0  0  0  0  0  0  0  0  0  0
  -11.1261   19.6231   67.1446 H   0  0  0  0  0  0  0  0  0  0  0  0
  -10.5726   19.7445   65.4300 H   0  0  0  0  0  0  0  0  0  0  0  0
   -9.5661   18.2776   69.1715 H   0  0  0  0  0  0  0  0  0  0  0  0
  -10.5011   17.2166   71.2003 H   0  0  0  0  0  0  0  0  0  0  0  0
  -12.5512   14.3865   68.8016 H   0  0  0  0  0  0  0  0  0  0  0  0
  -11.6032   15.4435   66.7980 H   0  0  0  0  0  0  0  0  0  0  0  0
  -11.3575   14.4979   73.0857 H   0  0  0  0  0  0  0  0  0  0  0  0
  -10.9011   16.1947   72.6482 H   0  0  0  0  0  0  0  0  0  0  0  0
  -13.2215   16.8815   73.0263 H   0  0  0  0  0  0  0  0  0  0  0  0
  -12.5406   15.9743   74.4752 H   0  0  0  0  0  0  0  0  0  0  0  0
  -14.7430   15.1492   73.9380 H   0  0  0  0  0  0  0  0  0  0  0  0
  -15.1610   13.8258   72.1297 H   0  0  0  0  0  0  0  0  0  0  0  0
  -14.7358   15.5350   71.5576 H   0  0  0  0  0  0  0  0  0  0  0  0
  -13.5126   13.9299   70.1743 H   0  0  0  0  0  0  0  0  0  0  0  0
  -12.7953   13.1555   71.6404 H   0  0  0  0  0  0  0  0  0  0  0  0
  1  2  1  0  0  0  0
  2  3  2  0  0  0  0
  2  4  2  0  0  0  0
  2  5  1  0  0  0  0
  5  6  2  0  0  0  0
  6  7  1  0  0  0  0
  7  8  2  0  0  0  0
  8  9  1  0  0  0  0
  9 10  2  0  0  0  0
  8 11  1  0  0  0  0
 11 12  1  0  0  0  0
 12 13  1  0  0  0  0
 13 14  1  0  0  0  0
 14 15  1  0  0  0  0
 15 16  1  0  0  0  0
 10  5  1  0  0  0  0
 16 11  1  0  0  0  0
  1 17  1  0  0  0  0
  1 18  1  0  0  0  0
  1 19  1  0  0  0  0
  6 20  1  0  0  0  0
  7 21  1  0  0  0  0
  9 22  1  0  0  0  0
 10 23  1  0  0  0  0
 12 24  1  0  0  0  0
 12 25  1  0  0  0  0
 13 26  1  0  0  0  0
 13 27  1  0  0  0  0
 14 28  1  0  0  0  0
 15 29  1  0  0  0  0
 15 30  1  0  0  0  0
 16 31  1  0  0  0  0
 16 32  1  0  0  0  0
M  END
> <Gold.Version>
2022.1.0

> <Gold.Id.Protein>
6LU7|6LU7_protein|mol2

> <Gold.PLP.Fitness>
47.3753

> <Gold.PLP.PLP>
-44.5249

> <Gold.PLP.part.hbond>
-3.0000

> <Gold.PLP.part.metal>
0.0000

> <Gold.PLP.part.buried>
-3.5495

> <Gold.PLP.part.nonpolar>
-38.8088

> <Gold.PLP.part.repulsive>
0.0608

> <Gold.PLP.ligand.clash>
0.0000

> <Gold.PLP.ligand.torsion>
1.1857

> <Gold.PLP.Chemscore.Hbond>
1.0000

> <Gold.PLP.Chemscore.CHOScore>
0.0000

> <Gold.PLP.Chemscore.Metal>
0.0000

> <Gold.Chemscore.Hbonds>
donor molecule, donor type, donor heavy atom, donor atom, acceptor molecule, acceptor atom, score
      P1  H  1105  4261       L1     4  1.00

> <Gold.PLP.Chemscore.Internal.Correction>
2.2218

> <Gold.Protein.RotatedTorsions>
[ 3973 1471 1470 1467 ] final   -7.63 input   60.00 | X-H torsion
[ 3372  414  413  411 ] final   76.53 input   60.00 | X-H torsion
[ 4268 1114 1113 1110 ] final -166.89 input   59.99 | X-H torsion
[ 4409  924  923  921 ] final  -57.14 input   59.99 | X-H torsion
[ 4183 1244 1243 1241 ] final   57.64 input   59.99 | X-H torsion
[ 3800  178  177  174 ] final  130.33 input   60.00 | X-H torsion
[ 3793  171  170  167 ] final   51.83 input   60.00 | X-H torsion
[ 3576  185  184  181 ] final -176.56 input   60.00 | X-H torsion
[ 3523  346  345  342 ] final  -35.41 input   60.01 | X-H torsion
[ 3515  339  338  335 ] final  164.43 input   60.00 | X-H torsion
[ 3663  154  153  150 ] final -103.59 input   60.00 | X-H torsion
[ 4280 1130 1129 1126 ] final  -67.36 input   60.00 | X-H torsion

> <Gold.Protein.ActiveResidues>
 VAL20   THR21   CYS22   GLY23   THR24   THR25   THR26   LEU27   ASN28   PRO39  
 ARG40   HIS41   VAL42   CYS44   THR45   SER46   ASP48   MET49   LEU50   PRO52  
 TYR54   TYR118  ASN119  ILE136  GLY138  SER139  PHE140  LEU141  ASN142  GLY143 
 SER144  CYS145  GLY146  SER147  TYR161  HIS163  HIS164  MET165  GLU166  LEU167 
 PRO168  THR169  GLY170  VAL171  HIS172  ALA173  PHE181  PHE185  VAL186  ASP187 
 ARG188  GLN189  THR190  ALA191  GLN192  ALA193 

> <Gold.Protein.RotatedAtoms>
  -13.8709   17.7342   76.0941 H   0  0  0  0  0  0  0  0  0  0  0  0  # atno 3372 bound_to 414 
   -2.7647   22.1035   75.3880 H   0  0  0  0  0  0  0  0  0  0  0  0  # atno 3515 bound_to 339 
   -3.6259   17.4226   72.7236 H   0  0  0  0  0  0  0  0  0  0  0  0  # atno 3523 bound_to 346 
   -7.1503   26.1019   63.1363 H   0  0  0  0  0  0  0  0  0  0  0  0  # atno 3576 bound_to 185 
   -6.9681   28.4853   65.4524 H   0  0  0  0  0  0  0  0  0  0  0  0  # atno 3663 bound_to 154 
   -3.4138   23.8542   71.8108 H   0  0  0  0  0  0  0  0  0  0  0  0  # atno 3793 bound_to 171 
   -7.3625   23.6997   72.5102 H   0  0  0  0  0  0  0  0  0  0  0  0  # atno 3800 bound_to 178 
  -15.0242    8.2911   76.8026 H   0  0  0  0  0  0  0  0  0  0  0  0  # atno 3973 bound_to 1471
  -20.9497   12.3793   63.5787 H   0  0  0  0  0  0  0  0  0  0  0  0  # atno 4183 bound_to 1244
  -13.1930   15.1141   60.8095 H   0  0  0  0  0  0  0  0  0  0  0  0  # atno 4268 bound_to 1114
  -16.4250   20.0232   58.1722 H   0  0  0  0  0  0  0  0  0  0  0  0  # atno 4280 bound_to 1130
  -12.1828   15.4316   57.1071 H   0  0  0  0  0  0  0  0  0  0  0  0  # atno 4409 bound_to 924 
  -15.3318    8.9524   78.2572 LP  0  0  0  0  0  0  0  0  0  0  0  0  # atno 4696 bound_to 1471
  -15.6806    7.3812   77.9813 LP  0  0  0  0  0  0  0  0  0  0  0  0  # atno 4697 bound_to 1471
  -14.9153   18.2064   74.9390 LP  0  0  0  0  0  0  0  0  0  0  0  0  # atno 4731 bound_to 414 
  -15.3157   16.9974   75.9610 LP  0  0  0  0  0  0  0  0  0  0  0  0  # atno 4732 bound_to 414 
  -14.1492   16.1826   61.5789 LP  0  0  0  0  0  0  0  0  0  0  0  0  # atno 4733 bound_to 1114
  -12.5731   16.0521   61.9859 LP  0  0  0  0  0  0  0  0  0  0  0  0  # atno 4734 bound_to 1114
  -10.8839   15.0553   58.0123 LP  0  0  0  0  0  0  0  0  0  0  0  0  # atno 4763 bound_to 924 
  -10.7916   14.9979   56.3829 LP  0  0  0  0  0  0  0  0  0  0  0  0  # atno 4764 bound_to 924 
  -20.5044   13.5524   64.6147 LP  0  0  0  0  0  0  0  0  0  0  0  0  # atno 4771 bound_to 1244
  -19.9090   13.5326   63.0943 LP  0  0  0  0  0  0  0  0  0  0  0  0  # atno 4772 bound_to 1244
   -6.0574   23.4514   71.5704 LP  0  0  0  0  0  0  0  0  0  0  0  0  # atno 4775 bound_to 178 
   -7.1923   22.2869   71.7209 LP  0  0  0  0  0  0  0  0  0  0  0  0  # atno 4776 bound_to 178 
   -2.7007   25.0011   72.7186 LP  0  0  0  0  0  0  0  0  0  0  0  0  # atno 4779 bound_to 171 
   -1.8416   23.7107   72.2052 LP  0  0  0  0  0  0  0  0  0  0  0  0  # atno 4780 bound_to 171 
   -8.4317   26.6416   63.9817 LP  0  0  0  0  0  0  0  0  0  0  0  0  # atno 4783 bound_to 185 
   -8.3753   25.0880   63.4817 LP  0  0  0  0  0  0  0  0  0  0  0  0  # atno 4784 bound_to 185 
   -2.0638   16.9686   72.6808 LP  0  0  0  0  0  0  0  0  0  0  0  0  # atno 4785 bound_to 346 
   -2.4679   18.4671   73.1885 LP  0  0  0  0  0  0  0  0  0  0  0  0  # atno 4786 bound_to 346 
   -3.6438   21.4998   74.1589 LP  0  0  0  0  0  0  0  0  0  0  0  0  # atno 4787 bound_to 339 
   -3.0626   20.5054   75.3165 LP  0  0  0  0  0  0  0  0  0  0  0  0  # atno 4788 bound_to 339 
   -7.4149   29.9727   64.9663 LP  0  0  0  0  0  0  0  0  0  0  0  0  # atno 4797 bound_to 154 
   -8.5478   28.8449   65.2998 LP  0  0  0  0  0  0  0  0  0  0  0  0  # atno 4798 bound_to 154 

$$$$
