#       Name:                unknown
#       Creating user name   williammccorkindale
#       Creation time:       Tue Jun  7 14:55:39 2022


#       File generated by GOLD software.
#

@<TRIPOS>MOLECULE
unknown|prepared_Mpro-x2193|mol2|1|dock4
    33    34     1
SMALL
NO_CHARGES


@<TRIPOS>ATOM
      1 C1         -10.2496  19.1824  66.2539 C.3            1 RES1               0.0000
      2 S2          -9.7811  17.4609  66.3934 S.o2           1 RES1               0.0000
      3 O3          -8.2812  17.3739  66.5868 O.2            1 RES1               0.0000
      4 O4         -10.2066  16.6837  65.1901 O.2            1 RES1               0.0000
      5 C5         -10.5107  16.8476  67.8608 C.ar           1 RES1               0.0000
      6 C6         -11.4162  15.8087  67.8474 C.ar           1 RES1               0.0000
      7 C7         -11.9983  15.3156  68.9920 C.ar           1 RES1               0.0000
      8 C8         -11.6937  15.8528  70.2353 C.ar           1 RES1               0.0000
      9 C9         -10.7916  16.8891  70.2568 C.ar           1 RES1               0.0000
     10 C10        -10.2190  17.3701  69.1029 C.ar           1 RES1               0.0000
     11 N11        -12.2852  15.3488  71.4283 N.pl3          1 RES1               0.0000
     12 C12        -13.3909  14.4289  71.2896 C.3            1 RES1               0.0000
     13 C13        -13.4961  13.7114  72.6439 C.3            1 RES1               0.0000
     14 N14        -13.8008  14.7304  73.6067 N.3            1 RES1               0.0000
     15 C15        -12.6305  15.5289  73.8706 C.3            1 RES1               0.0000
     16 C16        -11.7705  15.7722  72.6888 C.3            1 RES1               0.0000
     17 H17        -10.0767  19.6421  67.2486 H              1 RES1               0.0000
     18 H18         -9.7199  19.6876  65.4463 H              1 RES1               0.0000
     19 H19        -11.3629  19.1833  66.1140 H              1 RES1               0.0000
     20 H20        -11.6676  15.3744  66.8819 H              1 RES1               0.0000
     21 H21        -12.7215  14.4838  68.9540 H              1 RES1               0.0000
     22 H22        -10.5351  17.3242  71.2072 H              1 RES1               0.0000
     23 H23         -9.5002  18.1943  69.1087 H              1 RES1               0.0000
     24 H24        -14.3389  14.9988  71.1610 H              1 RES1               0.0000
     25 H25        -13.2360  13.6766  70.4899 H              1 RES1               0.0000
     26 H26        -14.2845  12.9422  72.5636 H              1 RES1               0.0000
     27 H27        -12.5233  13.2690  72.8813 H              1 RES1               0.0000
     28 H28        -14.5685  15.3341  73.1858 H              1 RES1               0.0000
     29 H29        -12.0514  14.9860  74.6700 H              1 RES1               0.0000
     30 H30        -12.9815  16.4600  74.3617 H              1 RES1               0.0000
     31 H31        -10.7661  15.3317  72.8583 H              1 RES1               0.0000
     32 H32        -11.5852  16.8877  72.6551 H              1 RES1               0.0000
     33 ****       -14.0972  14.3273  74.4725 LP             1 RES1               0.0000
@<TRIPOS>BOND
    1    1    2 1     
    2    2    3 2     
    3    2    4 2     
    4    2    5 1     
    5    5    6 ar    
    6    6    7 ar    
    7    7    8 ar    
    8    8    9 ar    
    9    9   10 ar    
   10    8   11 1     
   11   11   12 1     
   12   12   13 1     
   13   13   14 1     
   14   14   15 1     
   15   15   16 1     
   16   10    5 ar    
   17   16   11 1     
   18    1   17 1     
   19    1   18 1     
   20    1   19 1     
   21    6   20 1     
   22    7   21 1     
   23    9   22 1     
   24   10   23 1     
   25   12   24 1     
   26   12   25 1     
   27   13   26 1     
   28   13   27 1     
   29   14   28 1     
   30   15   29 1     
   31   15   30 1     
   32   16   31 1     
   33   16   32 1     
   34   14   33 1     
@<TRIPOS>SUBSTRUCTURE
      1 RES1           1
@<TRIPOS>SET
LONE_PAIRS      STATIC     ATOMS    <user>   **** ""
3 3 4 33
DONOR_HYDROGENS      STATIC     ATOMS    <user>   **** ""
1 28
ATOM$BLUE        STATIC     ATOMS    COLORGROUP SYSTEM
3 3 4 33
ATOM$RED        STATIC     ATOMS    COLORGROUP SYSTEM
1 28
@<TRIPOS>COMMENT
> <Gold.Version>
2022.1.0

> <Gold.Id.Protein>
6LU7|6LU7_protein|mol2

> <Gold.Protein.RotatedTorsions>
[ 3973 1471 1470 1467 ] final -113.78 input   60.00 | X-H torsion
[ 3372  414  413  411 ] final  175.45 input   60.00 | X-H torsion
[ 4268 1114 1113 1110 ] final  167.04 input   59.99 | X-H torsion
[ 4409  924  923  921 ] final  168.68 input   59.99 | X-H torsion
[ 4183 1244 1243 1241 ] final  144.52 input   59.99 | X-H torsion
[ 3800  178  177  174 ] final  147.13 input   60.00 | X-H torsion
[ 3793  171  170  167 ] final  128.99 input   60.00 | X-H torsion
[ 3576  185  184  181 ] final   69.42 input   60.00 | X-H torsion
[ 3523  346  345  342 ] final   39.44 input   60.01 | X-H torsion
[ 3515  339  338  335 ] final -121.44 input   60.00 | X-H torsion
[ 3663  154  153  150 ] final   16.06 input   60.00 | X-H torsion
[ 4280 1130 1129 1126 ] final  -99.49 input   60.00 | X-H torsion

> <Gold.Protein.ActiveResidues>
 VAL20   THR21   CYS22   GLY23   THR24   THR25   THR26   LEU27   ASN28   PRO39  
 ARG40   HIS41   VAL42   CYS44   THR45   SER46   ASP48   MET49   LEU50   PRO52  
 TYR54   TYR118  ASN119  ILE136  GLY138  SER139  PHE140  LEU141  ASN142  GLY143 
 SER144  CYS145  GLY146  SER147  TYR161  HIS163  HIS164  MET165  GLU166  LEU167 
 PRO168  THR169  GLY170  VAL171  HIS172  ALA173  PHE181  PHE185  VAL186  ASP187 
 ARG188  GLN189  THR190  ALA191  GLN192  ALA193 

> <Gold.Protein.RotatedAtoms>
  -15.0546   16.9490   76.1792 H   0  0  0  0  0  0  0  0  0  0  0  0  # atno 3372 bound_to 414 
   -2.7296   21.0232   75.7127 H   0  0  0  0  0  0  0  0  0  0  0  0  # atno 3515 bound_to 339 
   -3.1815   18.3965   73.1093 H   0  0  0  0  0  0  0  0  0  0  0  0  # atno 3523 bound_to 346 
   -8.3517   26.6929   63.9572 H   0  0  0  0  0  0  0  0  0  0  0  0  # atno 3576 bound_to 185 
   -8.5400   28.8421   65.3032 H   0  0  0  0  0  0  0  0  0  0  0  0  # atno 3663 bound_to 154 
   -2.3423   23.3931   71.8597 H   0  0  0  0  0  0  0  0  0  0  0  0  # atno 3793 bound_to 171 
   -7.5296   23.4832   72.5106 H   0  0  0  0  0  0  0  0  0  0  0  0  # atno 3800 bound_to 178 
  -15.2402    9.0501   78.0746 H   0  0  0  0  0  0  0  0  0  0  0  0  # atno 3973 bound_to 1471
  -20.1427   13.1004   62.8813 H   0  0  0  0  0  0  0  0  0  0  0  0  # atno 4183 bound_to 1244
  -13.6014   15.2150   60.7727 H   0  0  0  0  0  0  0  0  0  0  0  0  # atno 4268 bound_to 1114
  -16.3991   19.5468   57.9706 H   0  0  0  0  0  0  0  0  0  0  0  0  # atno 4280 bound_to 1130
  -10.7020   15.0006   57.8791 H   0  0  0  0  0  0  0  0  0  0  0  0  # atno 4409 bound_to 924 
  -15.7133    7.4964   78.1743 LP  0  0  0  0  0  0  0  0  0  0  0  0  # atno 4696 bound_to 1471
  -15.0815    8.0728   76.7832 LP  0  0  0  0  0  0  0  0  0  0  0  0  # atno 4697 bound_to 1471
  -13.8368   17.9784   75.8546 LP  0  0  0  0  0  0  0  0  0  0  0  0  # atno 4731 bound_to 414 
  -15.2022   18.0161   74.9596 LP  0  0  0  0  0  0  0  0  0  0  0  0  # atno 4732 bound_to 414 
  -13.9061   16.3813   61.8658 LP  0  0  0  0  0  0  0  0  0  0  0  0  # atno 4733 bound_to 1114
  -12.4049   15.7518   61.7361 LP  0  0  0  0  0  0  0  0  0  0  0  0  # atno 4734 bound_to 1114
  -10.9915   15.0561   56.2787 LP  0  0  0  0  0  0  0  0  0  0  0  0  # atno 4763 bound_to 924 
  -12.1754   15.4313   57.3390 LP  0  0  0  0  0  0  0  0  0  0  0  0  # atno 4764 bound_to 924 
  -21.0586   12.5054   64.0876 LP  0  0  0  0  0  0  0  0  0  0  0  0  # atno 4771 bound_to 1244
  -20.1675   13.8534   64.3237 LP  0  0  0  0  0  0  0  0  0  0  0  0  # atno 4772 bound_to 1244
   -6.1209   23.6746   71.7187 LP  0  0  0  0  0  0  0  0  0  0  0  0  # atno 4775 bound_to 178 
   -6.9604   22.2816   71.5723 LP  0  0  0  0  0  0  0  0  0  0  0  0  # atno 4776 bound_to 178 
   -3.5528   24.4472   72.1272 LP  0  0  0  0  0  0  0  0  0  0  0  0  # atno 4779 bound_to 171 
   -2.0687   24.7291   72.7474 LP  0  0  0  0  0  0  0  0  0  0  0  0  # atno 4780 bound_to 171 
   -8.4504   25.1250   63.5331 LP  0  0  0  0  0  0  0  0  0  0  0  0  # atno 4783 bound_to 185 
   -7.1466   26.0094   63.1037 LP  0  0  0  0  0  0  0  0  0  0  0  0  # atno 4784 bound_to 185 
   -3.1981   16.8667   72.5547 LP  0  0  0  0  0  0  0  0  0  0  0  0  # atno 4785 bound_to 346 
   -1.7810   17.5882   72.9262 LP  0  0  0  0  0  0  0  0  0  0  0  0  # atno 4786 bound_to 346 
   -3.1208   22.2966   74.7782 LP  0  0  0  0  0  0  0  0  0  0  0  0  # atno 4787 bound_to 339 
   -3.6209   20.7966   74.3703 LP  0  0  0  0  0  0  0  0  0  0  0  0  # atno 4788 bound_to 339 
   -6.9593   28.4843   65.4506 LP  0  0  0  0  0  0  0  0  0  0  0  0  # atno 4797 bound_to 154 
   -7.4204   29.9739   64.9658 LP  0  0  0  0  0  0  0  0  0  0  0  0  # atno 4798 bound_to 154 

> <Gold.Score>
     Score     S(PLP)   S(hbond)     S(cho)   S(metal)  DE(clash)   DE(tors)     intcor
     46.08     -43.19       1.00       0.00       0.00       0.00       1.14       2.17

> <Gold.PLP.Fitness>
46.0762

> <Gold.PLP.PLP>
-43.1858

> <Gold.PLP.part.hbond>
-3.0000

> <Gold.PLP.part.metal>
0.0000

> <Gold.PLP.part.buried>
-1.2101

> <Gold.PLP.part.nonpolar>
-38.7281

> <Gold.PLP.part.repulsive>
0.0954

> <Gold.PLP.ligand.clash>
0.0000

> <Gold.PLP.ligand.torsion>
1.1386

> <Gold.PLP.Chemscore.Hbond>
1.0000

> <Gold.PLP.Chemscore.CHOScore>
0.0000

> <Gold.PLP.Chemscore.Metal>
0.0000

> <Gold.Chemscore.Hbonds>
donor molecule, donor type, donor heavy atom, donor atom, acceptor molecule, acceptor atom, score
      P1  H  1105  4261       L1     4  1.00

> <Gold.PLP.Chemscore.Internal.Correction>
2.1676

