#       Name:                /Users/williammccorkindale/ml_physics/smi2wyck/notebooks/docking/mpro_fragments/prepared_Mpro-x0874.mol2
#       Creating user name   williammccorkindale
#       Creation time:       Tue Jun  7 14:55:38 2022


#       File generated by GOLD software.
#

@<TRIPOS>MOLECULE
/Users/williammccorkindale/ml_physics/smi2wyck/notebooks/docking/mpro_fragments/prepared_Mpro-x0874.mol2
    28    29     1
SMALL
NO_CHARGES


@<TRIPOS>ATOM
      1 O1          -0.3691  -1.9754   0.4411 O.2            1 RES1               0.0000
      2 C2          -1.1710  -1.3073  -0.2307 C.2            1 RES1               0.0000
      3 C3          -0.8638   0.0339  -0.6727 C.3            1 RES1               0.0000
      4 C4           0.4004   0.6694  -0.3111 C.3            1 RES1               0.0000
      5 C5           1.6280  -0.1803  -0.2938 C.2            1 RES1               0.0000
      6 C6           2.3707  -0.3394  -1.4432 C.2            1 RES1               0.0000
      7 S7           3.6649  -1.3426  -0.9639 S.3            1 RES1               0.0000
      8 C8           3.2436  -1.5406   0.6744 C.2            1 RES1               0.0000
      9 C9           2.0917  -0.8089   0.8001 C.2            1 RES1               0.0000
     10 C10          0.1361   1.3622   0.9954 C.3            1 RES1               0.0000
     11 C11         -1.1961   2.0462   0.6566 C.3            1 RES1               0.0000
     12 C12         -1.9339   0.9525  -0.0557 C.3            1 RES1               0.0000
     13 N13         -2.4179  -1.8963  -0.5631 N.am           1 RES1               0.0000
     14 H14         -0.9847   0.1132  -1.8059 H              1 RES1               0.0000
     15 H15          0.5400   1.5073  -1.0665 H              1 RES1               0.0000
     16 H16          2.1648   0.0899  -2.4413 H              1 RES1               0.0000
     17 H17          3.7892  -2.1266   1.4338 H              1 RES1               0.0000
     18 H18          1.6226  -0.7816   1.8158 H              1 RES1               0.0000
     19 H19          0.9029   2.1000   1.2758 H              1 RES1               0.0000
     20 H20          0.0233   0.6661   1.8411 H              1 RES1               0.0000
     21 H21         -1.7009   2.4297   1.5441 H              1 RES1               0.0000
     22 H22         -0.9501   2.8244  -0.0933 H              1 RES1               0.0000
     23 H23         -2.5520   0.4249   0.6910 H              1 RES1               0.0000
     24 H24         -2.6180   1.3373  -0.8391 H              1 RES1               0.0000
     25 H25         -2.6841  -2.8685  -0.2632 H              1 RES1               0.0000
     26 H26         -3.1367  -1.3894  -1.1255 H              1 RES1               0.0000
     27 ****         0.5182  -1.5879   0.6911 LP             1 RES1               0.0000
     28 ****        -0.6104  -2.9011   0.7323 LP             1 RES1               0.0000
@<TRIPOS>BOND
    1    1    2 2     
    2    2    3 1     
    3    3    4 1     
    4    4    5 1     
    5    5    6 2     
    6    6    7 1     
    7    7    8 1     
    8    8    9 2     
    9    4   10 1     
   10   10   11 1     
   11   11   12 1     
   12    2   13 am    
   13   12    3 1     
   14    9    5 1     
   15    3   14 1     
   16    4   15 1     
   17    6   16 1     
   18    8   17 1     
   19    9   18 1     
   20   10   19 1     
   21   10   20 1     
   22   11   21 1     
   23   11   22 1     
   24   12   23 1     
   25   12   24 1     
   26   13   25 1     
   27   13   26 1     
   28    1   27 1     
   29    1   28 1     
@<TRIPOS>SUBSTRUCTURE
      1 RES1           1
@<TRIPOS>SET
LONE_PAIRS      STATIC     ATOMS    <user>   **** ""
2 27 28
DONOR_HYDROGENS      STATIC     ATOMS    <user>   **** ""
2 25 26
ATOM$BLUE        STATIC     ATOMS    COLORGROUP SYSTEM
2 27 28
ATOM$RED        STATIC     ATOMS    COLORGROUP SYSTEM
2 25 26
