#       Name:                unknown
#       Creating user name   williammccorkindale
#       Creation time:       Tue Jun  7 14:55:35 2022


#       File generated by GOLD software.
#

@<TRIPOS>MOLECULE
unknown|prepared_Mpro-x0104|mol2|1|dock4
    31    32     1
SMALL
NO_CHARGES


@<TRIPOS>ATOM
      1 C1         -10.8005   6.1890  67.1614 C.3            1 RES1               0.0000
      2 C2         -10.7748   6.9349  68.4500 C.2            1 RES1               0.0000
      3 O3         -10.6911   6.3647  69.5552 O.2            1 RES1               0.0000
      4 N4         -10.8468   8.3584  68.4639 N.am           1 RES1               0.0000
      5 C5         -10.8222   9.0817  69.7185 C.3            1 RES1               0.0000
      6 C6         -11.3953  10.4566  69.4763 C.3            1 RES1               0.0000
      7 C7         -12.2258  10.9282  70.6006 C.2            1 RES1               0.0000
      8 C8         -12.8632  10.2188  71.5945 C.2            1 RES1               0.0000
      9 N9         -13.5030  11.0783  72.3991 N.pl3          1 RES1               0.0000
     10 C10        -13.3154  12.3615  71.9749 C.ar           1 RES1               0.0000
     11 C11        -13.7595  13.5716  72.4585 C.ar           1 RES1               0.0000
     12 C12        -13.3863  14.7159  71.7860 C.ar           1 RES1               0.0000
     13 C13        -12.5915  14.6788  70.6591 C.ar           1 RES1               0.0000
     14 F14        -12.2548  15.8263  70.0378 F              1 RES1               0.0000
     15 C15        -12.1725  13.4469  70.2147 C.ar           1 RES1               0.0000
     16 C16        -12.5134  12.2527  70.8469 C.ar           1 RES1               0.0000
     17 H17        -11.7442   6.4047  66.6267 H              1 RES1               0.0000
     18 H18        -10.6996   5.0957  67.3992 H              1 RES1               0.0000
     19 H19         -9.9337   6.4379  66.5159 H              1 RES1               0.0000
     20 H20        -10.9166   8.8525  67.5498 H              1 RES1               0.0000
     21 H21         -9.8043   9.1696  70.1437 H              1 RES1               0.0000
     22 H22        -11.4215   8.5069  70.4602 H              1 RES1               0.0000
     23 H23        -12.0047  10.4959  68.5522 H              1 RES1               0.0000
     24 H24        -10.5301  11.1377  69.2923 H              1 RES1               0.0000
     25 H25        -12.8269   9.1580  71.6754 H              1 RES1               0.0000
     26 H26        -14.0566  10.7861  73.2209 H              1 RES1               0.0000
     27 H27        -14.3802  13.6597  73.3299 H              1 RES1               0.0000
     28 H28        -13.7254  15.6842  72.1523 H              1 RES1               0.0000
     29 H29        -11.5381  13.3725  69.3228 H              1 RES1               0.0000
     30 ****       -10.6380   5.3672  69.6005 LP             1 RES1               0.0000
     31 ****       -10.6770   6.9049  70.3967 LP             1 RES1               0.0000
@<TRIPOS>BOND
    1    1    2 1     
    2    2    3 2     
    3    2    4 am    
    4    4    5 1     
    5    5    6 1     
    6    6    7 1     
    7    7    8 2     
    8    8    9 1     
    9    9   10 1     
   10   10   11 ar    
   11   11   12 ar    
   12   12   13 ar    
   13   13   14 1     
   14   13   15 ar    
   15   15   16 ar    
   16   16    7 1     
   17   10   16 ar    
   18    1   17 1     
   19    1   18 1     
   20    1   19 1     
   21    4   20 1     
   22    5   21 1     
   23    5   22 1     
   24    6   23 1     
   25    6   24 1     
   26    8   25 1     
   27    9   26 1     
   28   11   27 1     
   29   12   28 1     
   30   15   29 1     
   31    3   30 1     
   32    3   31 1     
@<TRIPOS>SUBSTRUCTURE
      1 RES1           1
@<TRIPOS>SET
LONE_PAIRS      STATIC     ATOMS    <user>   **** ""
2 30 31
DONOR_HYDROGENS      STATIC     ATOMS    <user>   **** ""
2 20 26
ATOM$BLUE        STATIC     ATOMS    COLORGROUP SYSTEM
2 30 31
ATOM$RED        STATIC     ATOMS    COLORGROUP SYSTEM
2 20 26
@<TRIPOS>COMMENT
> <Gold.Version>
2022.1.0

> <Gold.Id.Protein>
6LU7|6LU7_protein|mol2

> <Gold.Protein.RotatedTorsions>
[ 3973 1471 1470 1467 ] final   70.82 input   60.00 | X-H torsion
[ 3372  414  413  411 ] final   64.90 input   60.00 | X-H torsion
[ 4268 1114 1113 1110 ] final -148.52 input   59.99 | X-H torsion
[ 4409  924  923  921 ] final  -57.01 input   59.99 | X-H torsion
[ 4183 1244 1243 1241 ] final -126.87 input   59.99 | X-H torsion
[ 3800  178  177  174 ] final   37.26 input   60.00 | X-H torsion
[ 3793  171  170  167 ] final   81.93 input   60.00 | X-H torsion
[ 3576  185  184  181 ] final  -64.75 input   60.00 | X-H torsion
[ 3523  346  345  342 ] final  -14.24 input   60.01 | X-H torsion
[ 3515  339  338  335 ] final -130.32 input   60.00 | X-H torsion
[ 3663  154  153  150 ] final  -53.48 input   60.00 | X-H torsion
[ 4280 1130 1129 1126 ] final   97.14 input   60.00 | X-H torsion

> <Gold.Protein.ActiveResidues>
 VAL20   THR21   CYS22   GLY23   THR24   THR25   THR26   LEU27   ASN28   PRO39  
 ARG40   HIS41   VAL42   CYS44   THR45   SER46   ASP48   MET49   LEU50   PRO52  
 TYR54   TYR118  ASN119  ILE136  GLY138  SER139  PHE140  LEU141  ASN142  GLY143 
 SER144  CYS145  GLY146  SER147  TYR161  HIS163  HIS164  MET165  GLU166  LEU167 
 PRO168  THR169  GLY170  VAL171  HIS172  ALA173  PHE181  PHE185  VAL186  ASP187 
 ARG188  GLN189  THR190  ALA191  GLN192  ALA193 

> <Gold.Protein.RotatedAtoms>
  -13.8416   17.8720   75.9673 H   0  0  0  0  0  0  0  0  0  0  0  0  # atno 3372 bound_to 414 
   -2.6904   21.1602   75.7397 H   0  0  0  0  0  0  0  0  0  0  0  0  # atno 3515 bound_to 339 
   -3.6485   17.7460   72.8383 H   0  0  0  0  0  0  0  0  0  0  0  0  # atno 3523 bound_to 346 
   -8.2624   25.0582   63.4151 H   0  0  0  0  0  0  0  0  0  0  0  0  # atno 3576 bound_to 185 
   -7.7082   28.2097   65.5234 H   0  0  0  0  0  0  0  0  0  0  0  0  # atno 3663 bound_to 154 
   -3.0644   23.5284   71.7215 H   0  0  0  0  0  0  0  0  0  0  0  0  # atno 3793 bound_to 171 
   -6.1967   23.7850   71.8170 H   0  0  0  0  0  0  0  0  0  0  0  0  # atno 3800 bound_to 178 
  -15.4753    7.3421   77.3482 H   0  0  0  0  0  0  0  0  0  0  0  0  # atno 3973 bound_to 1471
  -19.9384   13.9250   63.8755 H   0  0  0  0  0  0  0  0  0  0  0  0  # atno 4183 bound_to 1244
  -12.9140   15.1246   60.9159 H   0  0  0  0  0  0  0  0  0  0  0  0  # atno 4268 bound_to 1114
  -15.5223   19.1919   59.5636 H   0  0  0  0  0  0  0  0  0  0  0  0  # atno 4280 bound_to 1130
  -12.1826   15.4316   57.1051 H   0  0  0  0  0  0  0  0  0  0  0  0  # atno 4409 bound_to 924 
  -14.9714    8.8730   77.1235 LP  0  0  0  0  0  0  0  0  0  0  0  0  # atno 4696 bound_to 1471
  -15.5867    8.4163   78.5655 LP  0  0  0  0  0  0  0  0  0  0  0  0  # atno 4697 bound_to 1471
  -15.0797   18.1093   74.9382 LP  0  0  0  0  0  0  0  0  0  0  0  0  # atno 4731 bound_to 414 
  -15.1808   16.9556   76.0895 LP  0  0  0  0  0  0  0  0  0  0  0  0  # atno 4732 bound_to 414 
  -14.2189   15.9903   61.3581 LP  0  0  0  0  0  0  0  0  0  0  0  0  # atno 4733 bound_to 1114
  -12.7844   16.2338   62.0995 LP  0  0  0  0  0  0  0  0  0  0  0  0  # atno 4734 bound_to 1114
  -10.8856   15.0559   58.0132 LP  0  0  0  0  0  0  0  0  0  0  0  0  # atno 4763 bound_to 924 
  -10.7900   14.9974   56.3841 LP  0  0  0  0  0  0  0  0  0  0  0  0  # atno 4764 bound_to 924 
  -20.4530   12.7011   62.9346 LP  0  0  0  0  0  0  0  0  0  0  0  0  # atno 4771 bound_to 1244
  -20.9789   12.8272   64.4755 LP  0  0  0  0  0  0  0  0  0  0  0  0  # atno 4772 bound_to 1244
   -6.8156   22.3144   71.4969 LP  0  0  0  0  0  0  0  0  0  0  0  0  # atno 4775 bound_to 178 
   -7.6081   23.3379   72.4925 LP  0  0  0  0  0  0  0  0  0  0  0  0  # atno 4776 bound_to 178 
   -3.1513   24.9320   72.5402 LP  0  0  0  0  0  0  0  0  0  0  0  0  # atno 4779 bound_to 171 
   -1.7430   24.1081   72.4736 LP  0  0  0  0  0  0  0  0  0  0  0  0  # atno 4780 bound_to 171 
   -7.1586   26.2299   63.1768 LP  0  0  0  0  0  0  0  0  0  0  0  0  # atno 4783 bound_to 185 
   -8.5283   26.5509   64.0060 LP  0  0  0  0  0  0  0  0  0  0  0  0  # atno 4784 bound_to 185 
   -2.3508   16.7946   72.5955 LP  0  0  0  0  0  0  0  0  0  0  0  0  # atno 4785 bound_to 346 
   -2.1580   18.3154   73.1583 LP  0  0  0  0  0  0  0  0  0  0  0  0  # atno 4786 bound_to 346 
   -3.2012   22.2655   74.6602 LP  0  0  0  0  0  0  0  0  0  0  0  0  # atno 4787 bound_to 339 
   -3.5800   20.6896   74.4610 LP  0  0  0  0  0  0  0  0  0  0  0  0  # atno 4788 bound_to 339 
   -6.7944   29.4979   65.1315 LP  0  0  0  0  0  0  0  0  0  0  0  0  # atno 4797 bound_to 154 
   -8.4230   29.5972   65.0630 LP  0  0  0  0  0  0  0  0  0  0  0  0  # atno 4798 bound_to 154 

> <Gold.Score>
     Score     S(PLP)   S(hbond)     S(cho)   S(metal)  DE(clash)   DE(tors)     intcor
     50.21     -48.65       0.99       0.00       0.00       0.00       0.71       0.01

> <Gold.PLP.Fitness>
50.2077

> <Gold.PLP.PLP>
-48.6468

> <Gold.PLP.part.hbond>
-2.0000

> <Gold.PLP.part.metal>
0.0000

> <Gold.PLP.part.buried>
-5.8282

> <Gold.PLP.part.nonpolar>
-42.0044

> <Gold.PLP.part.repulsive>
0.2621

> <Gold.PLP.ligand.clash>
0.0000

> <Gold.PLP.ligand.torsion>
0.7100

> <Gold.PLP.Chemscore.Hbond>
0.9920

> <Gold.PLP.Chemscore.CHOScore>
0.0000

> <Gold.PLP.Chemscore.Metal>
0.0000

> <Gold.Chemscore.Hbonds>
donor molecule, donor type, donor heavy atom, donor atom, acceptor molecule, acceptor atom, score
      L1  H     9    26       P1  1449  0.99

> <Gold.PLP.Chemscore.Internal.Correction>
0.0050

