unknown|prepared_Mpro-x2193|sdf|1|dock1
  -GOLD-   5 72214353D 1   1.00000     0.00000

 32 33  0  0  0  0  0  0  0  0  1 V2000
  -10.2026   13.9008   64.9782 C   0  0  0  0  0  0  0  0  0  0  0  0
  -10.7476   15.4902   65.5708 S   0  0  0  0  0  0  0  0  0  0  0  0
  -11.8881   15.9915   64.7310 O   0  0  0  0  0  0  0  0  0  0  0  0
   -9.6018   16.4901   65.5091 O   0  0  0  0  0  0  0  0  0  0  0  0
  -11.2149   15.2999   67.2512 C   0  0  0  0  0  0  0  0  0  0  0  0
  -11.0965   16.3400   68.1466 C   0  0  0  0  0  0  0  0  0  0  0  0
  -11.4603   16.2001   69.4670 C   0  0  0  0  0  0  0  0  0  0  0  0
  -11.9637   15.0078   69.9627 C   0  0  0  0  0  0  0  0  0  0  0  0
  -12.0870   13.9644   69.0813 C   0  0  0  0  0  0  0  0  0  0  0  0
  -11.7149   14.1123   67.7384 C   0  0  0  0  0  0  0  0  0  0  0  0
  -12.3589   14.8547   71.3062 N   0  0  0  0  0  0  0  0  0  0  0  0
  -11.5114   15.3024   72.3765 C   0  0  0  0  0  0  0  0  0  0  0  0
  -12.3167   16.2531   73.2522 C   0  0  0  0  0  0  0  0  0  0  0  0
  -13.5336   15.6333   73.6623 N   0  0  0  0  0  0  0  0  0  0  0  0
  -14.3635   15.2271   72.5409 C   0  0  0  0  0  0  0  0  0  0  0  0
  -13.6151   14.2299   71.6774 C   0  0  0  0  0  0  0  0  0  0  0  0
  -11.0205   13.4381   64.3634 H   0  0  0  0  0  0  0  0  0  0  0  0
   -9.9558   13.2073   65.7998 H   0  0  0  0  0  0  0  0  0  0  0  0
   -9.3036   14.0500   64.3419 H   0  0  0  0  0  0  0  0  0  0  0  0
  -10.6983   17.2907   67.7641 H   0  0  0  0  0  0  0  0  0  0  0  0
  -11.3464   17.0466   70.1382 H   0  0  0  0  0  0  0  0  0  0  0  0
  -12.4860   13.0249   69.4362 H   0  0  0  0  0  0  0  0  0  0  0  0
  -11.8248   13.2801   67.0850 H   0  0  0  0  0  0  0  0  0  0  0  0
  -11.3223   14.4082   73.0296 H   0  0  0  0  0  0  0  0  0  0  0  0
  -10.5678   15.7511   72.0777 H   0  0  0  0  0  0  0  0  0  0  0  0
  -12.4634   17.1873   72.6632 H   0  0  0  0  0  0  0  0  0  0  0  0
  -11.7012   16.4315   74.1578 H   0  0  0  0  0  0  0  0  0  0  0  0
  -14.1036   16.2400   74.2629 H   0  0  0  0  0  0  0  0  0  0  0  0
  -15.2845   14.7702   72.9817 H   0  0  0  0  0  0  0  0  0  0  0  0
  -14.5893   16.1066   71.9046 H   0  0  0  0  0  0  0  0  0  0  0  0
  -14.2048   13.9526   70.8098 H   0  0  0  0  0  0  0  0  0  0  0  0
  -13.3700   13.3124   72.2784 H   0  0  0  0  0  0  0  0  0  0  0  0
  1  2  1  0  0  0  0
  2  3  2  0  0  0  0
  2  4  2  0  0  0  0
  2  5  1  0  0  0  0
  5  6  2  0  0  0  0
  6  7  1  0  0  0  0
  7  8  2  0  0  0  0
  8  9  1  0  0  0  0
  9 10  2  0  0  0  0
  8 11  1  0  0  0  0
 11 12  1  0  0  0  0
 12 13  1  0  0  0  0
 13 14  1  0  0  0  0
 14 15  1  0  0  0  0
 15 16  1  0  0  0  0
 10  5  1  0  0  0  0
 16 11  1  0  0  0  0
  1 17  1  0  0  0  0
  1 18  1  0  0  0  0
  1 19  1  0  0  0  0
  6 20  1  0  0  0  0
  7 21  1  0  0  0  0
  9 22  1  0  0  0  0
 10 23  1  0  0  0  0
 12 24  1  0  0  0  0
 12 25  1  0  0  0  0
 13 26  1  0  0  0  0
 13 27  1  0  0  0  0
 14 28  1  0  0  0  0
 15 29  1  0  0  0  0
 15 30  1  0  0  0  0
 16 31  1  0  0  0  0
 16 32  1  0  0  0  0
M  END
> <Gold.Version>
2022.1.0

> <Gold.Id.Protein>
6LU7|6LU7_protein|mol2

> <Gold.PLP.Fitness>
44.5467

> <Gold.PLP.PLP>
-42.3612

> <Gold.PLP.part.hbond>
-2.0000

> <Gold.PLP.part.metal>
0.0000

> <Gold.PLP.part.buried>
-3.9716

> <Gold.PLP.part.nonpolar>
-37.2211

> <Gold.PLP.part.repulsive>
0.2067

> <Gold.PLP.ligand.clash>
0.0000

> <Gold.PLP.ligand.torsion>
1.9300

> <Gold.PLP.Chemscore.Hbond>
1.2746

> <Gold.PLP.Chemscore.CHOScore>
0.0000

> <Gold.PLP.Chemscore.Metal>
0.0000

> <Gold.Chemscore.Hbonds>
donor molecule, donor type, donor heavy atom, donor atom, acceptor molecule, acceptor atom, score
      L1  H    14    28       P1  1441  0.27
      P1  H  1105  4261       L1     4  1.00

> <Gold.PLP.Chemscore.Internal.Correction>
2.2218

> <Gold.Protein.RotatedTorsions>
[ 3973 1471 1470 1467 ] final  -26.23 input   60.00 | X-H torsion
[ 3372  414  413  411 ] final -174.28 input   60.00 | X-H torsion
[ 4268 1114 1113 1110 ] final  130.69 input   59.99 | X-H torsion
[ 4409  924  923  921 ] final   10.88 input   59.99 | X-H torsion
[ 4183 1244 1243 1241 ] final   15.70 input   59.99 | X-H torsion
[ 3800  178  177  174 ] final   77.98 input   60.00 | X-H torsion
[ 3793  171  170  167 ] final  -14.75 input   60.00 | X-H torsion
[ 3576  185  184  181 ] final  -64.33 input   60.00 | X-H torsion
[ 3523  346  345  342 ] final -134.24 input   60.01 | X-H torsion
[ 3515  339  338  335 ] final   98.14 input   60.00 | X-H torsion
[ 3663  154  153  150 ] final  123.91 input   60.00 | X-H torsion
[ 4280 1130 1129 1126 ] final -153.03 input   60.00 | X-H torsion

> <Gold.Protein.ActiveResidues>
 VAL20   THR21   CYS22   GLY23   THR24   THR25   THR26   LEU27   ASN28   PRO39  
 ARG40   HIS41   VAL42   CYS44   THR45   SER46   ASP48   MET49   LEU50   PRO52  
 TYR54   TYR118  ASN119  ILE136  GLY138  SER139  PHE140  LEU141  ASN142  GLY143 
 SER144  CYS145  GLY146  SER147  TYR161  HIS163  HIS164  MET165  GLU166  LEU167 
 PRO168  THR169  GLY170  VAL171  HIS172  ALA173  PHE181  PHE185  VAL186  ASP187 
 ARG188  GLN189  THR190  ALA191  GLN192  ALA193 

> <Gold.Protein.RotatedAtoms>
  -15.1885   16.9640   76.0795 H   0  0  0  0  0  0  0  0  0  0  0  0  # atno 3372 bound_to 414 
   -3.3045   22.1878   74.5223 H   0  0  0  0  0  0  0  0  0  0  0  0  # atno 3515 bound_to 339 
   -2.3536   16.7995   72.5996 H   0  0  0  0  0  0  0  0  0  0  0  0  # atno 3523 bound_to 346 
   -8.2681   25.0596   63.4186 H   0  0  0  0  0  0  0  0  0  0  0  0  # atno 3576 bound_to 185 
   -7.6184   29.9919   64.9579 H   0  0  0  0  0  0  0  0  0  0  0  0  # atno 3663 bound_to 154 
   -3.4075   24.7346   72.3411 H   0  0  0  0  0  0  0  0  0  0  0  0  # atno 3793 bound_to 171 
   -6.6568   24.0136   72.2177 H   0  0  0  0  0  0  0  0  0  0  0  0  # atno 3800 bound_to 178 
  -14.9771    8.5741   76.8989 H   0  0  0  0  0  0  0  0  0  0  0  0  # atno 3973 bound_to 1471
  -21.0516   12.5852   64.2080 H   0  0  0  0  0  0  0  0  0  0  0  0  # atno 4183 bound_to 1244
  -14.0537   15.5393   60.9496 H   0  0  0  0  0  0  0  0  0  0  0  0  # atno 4268 bound_to 1114
  -16.0905   18.7954   58.1970 H   0  0  0  0  0  0  0  0  0  0  0  0  # atno 4280 bound_to 1130
  -11.5738   15.2335   56.2786 H   0  0  0  0  0  0  0  0  0  0  0  0  # atno 4409 bound_to 924 
  -15.4535    8.7458   78.4453 LP  0  0  0  0  0  0  0  0  0  0  0  0  # atno 4696 bound_to 1471
  -15.6064    7.3028   77.6963 LP  0  0  0  0  0  0  0  0  0  0  0  0  # atno 4697 bound_to 1471
  -13.8356   17.8625   75.9773 LP  0  0  0  0  0  0  0  0  0  0  0  0  # atno 4731 bound_to 414 
  -15.0686   18.1168   74.9373 LP  0  0  0  0  0  0  0  0  0  0  0  0  # atno 4732 bound_to 414 
  -13.3788   16.4501   62.1170 LP  0  0  0  0  0  0  0  0  0  0  0  0  # atno 4733 bound_to 1114
  -12.4767   15.3564   61.3067 LP  0  0  0  0  0  0  0  0  0  0  0  0  # atno 4734 bound_to 1114
  -11.8855   15.3539   57.8712 LP  0  0  0  0  0  0  0  0  0  0  0  0  # atno 4763 bound_to 924 
  -10.4033   14.8990   57.3585 LP  0  0  0  0  0  0  0  0  0  0  0  0  # atno 4764 bound_to 924 
  -20.0895   13.8976   64.2098 LP  0  0  0  0  0  0  0  0  0  0  0  0  # atno 4771 bound_to 1244
  -20.2212   12.9800   62.8654 LP  0  0  0  0  0  0  0  0  0  0  0  0  # atno 4772 bound_to 1244
   -6.2953   22.6858   71.3491 LP  0  0  0  0  0  0  0  0  0  0  0  0  # atno 4775 bound_to 178 
   -7.6650   22.7364   72.2368 LP  0  0  0  0  0  0  0  0  0  0  0  0  # atno 4776 bound_to 178 
   -1.8364   24.4366   72.6424 LP  0  0  0  0  0  0  0  0  0  0  0  0  # atno 4779 bound_to 171 
   -2.7122   23.3886   71.7473 LP  0  0  0  0  0  0  0  0  0  0  0  0  # atno 4780 bound_to 171 
   -7.1575   26.2236   63.1743 LP  0  0  0  0  0  0  0  0  0  0  0  0  # atno 4783 bound_to 185 
   -8.5236   26.5558   64.0050 LP  0  0  0  0  0  0  0  0  0  0  0  0  # atno 4784 bound_to 185 
   -2.1580   18.3153   73.1583 LP  0  0  0  0  0  0  0  0  0  0  0  0  # atno 4785 bound_to 346 
   -3.6548   17.7478   72.8359 LP  0  0  0  0  0  0  0  0  0  0  0  0  # atno 4786 bound_to 346 
   -3.5118   20.5755   74.5962 LP  0  0  0  0  0  0  0  0  0  0  0  0  # atno 4787 bound_to 339 
   -2.6509   21.3447   75.7511 LP  0  0  0  0  0  0  0  0  0  0  0  0  # atno 4788 bound_to 339 
   -8.4700   28.6645   65.3590 LP  0  0  0  0  0  0  0  0  0  0  0  0  # atno 4797 bound_to 154 
   -6.8379   28.6358   65.4050 LP  0  0  0  0  0  0  0  0  0  0  0  0  # atno 4798 bound_to 154 

$$$$
