#       Name:                /Users/williammccorkindale/ml_physics/smi2wyck/notebooks/docking/mpro_fragments/prepared_Mpro-x2193.sdf
#       Creating user name   williammccorkindale
#       Creation time:       Tue Jun  7 14:44:34 2022


#       File generated by GOLD software.
#

@<TRIPOS>MOLECULE
/Users/williammccorkindale/ml_physics/smi2wyck/notebooks/docking/mpro_fragments/prepared_Mpro-x2193.sdf|gold_prepared_Mpro-x2193_m1|mol2|1|dock3
    33    34     1
_m1|mol2|1|dock3
NO_CHARGES


@<TRIPOS>ATOM
      1 ****       -10.4753  19.2293  66.2248 C.3            1 S1                 0.0000
      2 ****        -9.8239  17.5813  66.4095 S.o2           1 S1                 0.0000
      3 ****        -8.3237  17.6234  66.4790 O.2            1 S1                 0.0000
      4 ****       -10.2474  16.7184  65.2296 O.2            1 S1                 0.0000
      5 ****       -10.5211  16.8938  67.8655 C.ar           1 S1                 0.0000
      6 ****       -10.2178  17.4012  69.1098 C.ar           1 S1                 0.0000
      7 ****       -10.7597  16.8683  70.2577 C.ar           1 S1                 0.0000
      8 ****       -11.6369  15.7960  70.2209 C.ar           1 S1                 0.0000
      9 ****       -11.9473  15.2818  68.9881 C.ar           1 S1                 0.0000
     10 ****       -11.3926  15.8279  67.8229 C.ar           1 S1                 0.0000
     11 ****       -12.2151  15.2522  71.3848 N.pl3          1 S1                 0.0000
     12 ****       -11.5303  15.3211  72.6460 C.3            1 S1                 0.0000
     13 ****       -12.4594  15.9848  73.6537 C.3            1 S1                 0.0000
     14 ****       -13.7159  15.3113  73.6830 N.3            1 S1                 0.0000
     15 ****       -14.3765  15.2970  72.3889 C.3            1 S1                 0.0000
     16 ****       -13.5050  14.5872  71.3706 C.3            1 S1                 0.0000
     17 ****        -9.7002  19.9700  66.5590 H              1 S1                 0.0000
     18 ****       -11.3868  19.3913  66.8245 H              1 S1                 0.0000
     19 ****       -10.7077  19.3992  65.1513 H              1 S1                 0.0000
     20 ****        -9.5229  18.2522  69.1507 H              1 S1                 0.0000
     21 ****       -10.4894  17.2987  71.2179 H              1 S1                 0.0000
     22 ****       -12.6365  14.4517  68.9266 H              1 S1                 0.0000
     23 ****       -11.6572  15.4016  66.8848 H              1 S1                 0.0000
     24 ****       -11.4262  14.2639  73.0111 H              1 S1                 0.0000
     25 ****       -10.5584  15.8072  72.6315 H              1 S1                 0.0000
     26 ****       -12.5309  17.0590  73.3671 H              1 S1                 0.0000
     27 ****       -11.9787  15.8559  74.6452 H              1 S1                 0.0000
     28 ****       -14.3702  15.7239  74.3577 H              1 S1                 0.0000
     29 ****       -15.3458  14.7588  72.5375 H              1 S1                 0.0000
     30 ****       -14.5192  16.3362  72.0300 H              1 S1                 0.0000
     31 ****       -13.9645  14.6095  70.3879 H              1 S1                 0.0000
     32 ****       -13.3379  13.5218  71.6870 H              1 S1                 0.0000
     33 ****       -13.4879  14.3770  73.9573 LP             1 S1                 0.0000
@<TRIPOS>BOND
    1    1    2 1     
    2    2    3 2     
    3    2    4 2     
    4    2    5 1     
    5    5    6 ar    
    6    6    7 ar    
    7    7    8 ar    
    8    8    9 ar    
    9    9   10 ar    
   10    8   11 1     
   11   11   12 1     
   12   12   13 1     
   13   13   14 1     
   14   14   15 1     
   15   15   16 1     
   16   10    5 ar    
   17   16   11 1     
   18    1   17 1     
   19    1   18 1     
   20    1   19 1     
   21    6   20 1     
   22    7   21 1     
   23    9   22 1     
   24   10   23 1     
   25   12   24 1     
   26   12   25 1     
   27   13   26 1     
   28   13   27 1     
   29   14   28 1     
   30   15   29 1     
   31   15   30 1     
   32   16   31 1     
   33   16   32 1     
   34   14   33 1     
@<TRIPOS>SUBSTRUCTURE
      1 S1             1
@<TRIPOS>SET
LONE_PAIRS      STATIC     ATOMS    <user>   **** ""
3 3 4 33
DONOR_HYDROGENS      STATIC     ATOMS    <user>   **** ""
1 28
ATOM$BLUE        STATIC     ATOMS    COLORGROUP SYSTEM
3 3 4 33
ATOM$RED        STATIC     ATOMS    COLORGROUP SYSTEM
1 28
@<TRIPOS>COMMENT
> <Gold.Version>
2022.1.0

> <Gold.Id.Protein>
6LU7|6LU7_protein|mol2

> <Gold.Protein.RotatedTorsions>
[ 3973 1471 1470 1467 ] final  -79.40 input   60.00 | X-H torsion
[ 3372  414  413  411 ] final   11.40 input   60.00 | X-H torsion
[ 4268 1114 1113 1110 ] final  -93.04 input   59.99 | X-H torsion
[ 4409  924  923  921 ] final  154.47 input   59.99 | X-H torsion
[ 4183 1244 1243 1241 ] final -127.93 input   59.99 | X-H torsion
[ 3800  178  177  174 ] final   94.81 input   60.00 | X-H torsion
[ 3793  171  170  167 ] final  103.76 input   60.00 | X-H torsion
[ 3576  185  184  181 ] final  -40.03 input   60.00 | X-H torsion
[ 3523  346  345  342 ] final  -76.52 input   60.01 | X-H torsion
[ 3515  339  338  335 ] final  -36.29 input   60.00 | X-H torsion
[ 3663  154  153  150 ] final   50.16 input   60.00 | X-H torsion
[ 4280 1130 1129 1126 ] final   39.87 input   60.00 | X-H torsion

> <Gold.Protein.ActiveResidues>
 VAL20   THR21   CYS22   GLY23   THR24   THR25   THR26   LEU27   ASN28   PRO39  
 ARG40   HIS41   VAL42   CYS44   THR45   SER46   ASP48   MET49   LEU50   PRO52  
 TYR54   TYR118  ASN119  ILE136  GLY138  SER139  PHE140  LEU141  ASN142  GLY143 
 SER144  CYS145  GLY146  SER147  TYR161  HIS163  HIS164  MET165  GLU166  LEU167 
 PRO168  THR169  GLY170  VAL171  HIS172  ALA173  PHE181  PHE185  VAL186  ASP187 
 ARG188  GLN189  THR190  ALA191  GLN192  ALA193 

> <Gold.Protein.RotatedAtoms>
  -14.1426   18.3127   75.3149 H   0  0  0  0  0  0  0  0  0  0  0  0  # atno 3372 bound_to 414 
   -3.4069   20.4851   74.7873 H   0  0  0  0  0  0  0  0  0  0  0  0  # atno 3515 bound_to 339 
   -3.2505   16.9060   72.5672 H   0  0  0  0  0  0  0  0  0  0  0  0  # atno 3523 bound_to 346 
   -8.5651   25.2163   63.6247 H   0  0  0  0  0  0  0  0  0  0  0  0  # atno 3576 bound_to 185 
   -8.5338   29.3653   65.1367 H   0  0  0  0  0  0  0  0  0  0  0  0  # atno 3663 bound_to 154 
   -2.7347   23.4001   71.7446 H   0  0  0  0  0  0  0  0  0  0  0  0  # atno 3793 bound_to 171 
   -6.8933   23.9849   72.3529 H   0  0  0  0  0  0  0  0  0  0  0  0  # atno 3800 bound_to 178 
  -15.0536    9.0896   77.5551 H   0  0  0  0  0  0  0  0  0  0  0  0  # atno 3973 bound_to 1471
  -19.9329   13.9236   63.8591 H   0  0  0  0  0  0  0  0  0  0  0  0  # atno 4183 bound_to 1244
  -12.4056   15.5246   61.4999 H   0  0  0  0  0  0  0  0  0  0  0  0  # atno 4268 bound_to 1114
  -15.7664   20.0545   59.5277 H   0  0  0  0  0  0  0  0  0  0  0  0  # atno 4280 bound_to 1130
  -10.5533   14.9527   57.7080 H   0  0  0  0  0  0  0  0  0  0  0  0  # atno 4409 bound_to 924 
  -15.7012    7.9416   78.5093 LP  0  0  0  0  0  0  0  0  0  0  0  0  # atno 4696 bound_to 1471
  -15.2815    7.5878   76.9714 LP  0  0  0  0  0  0  0  0  0  0  0  0  # atno 4697 bound_to 1471
  -15.5499   17.4961   75.2893 LP  0  0  0  0  0  0  0  0  0  0  0  0  # atno 4731 bound_to 414 
  -14.4074   17.1251   76.3955 LP  0  0  0  0  0  0  0  0  0  0  0  0  # atno 4732 bound_to 414 
  -13.8835   15.3689   60.8369 LP  0  0  0  0  0  0  0  0  0  0  0  0  # atno 4733 bound_to 1114
  -13.6318   16.4523   62.0326 LP  0  0  0  0  0  0  0  0  0  0  0  0  # atno 4734 bound_to 1114
  -11.2099   15.1208   56.2287 LP  0  0  0  0  0  0  0  0  0  0  0  0  # atno 4763 bound_to 924 
  -12.1067   15.4147   57.5613 LP  0  0  0  0  0  0  0  0  0  0  0  0  # atno 4764 bound_to 924 
  -20.4641   12.6894   62.9412 LP  0  0  0  0  0  0  0  0  0  0  0  0  # atno 4771 bound_to 1244
  -20.9732   12.8403   64.4854 LP  0  0  0  0  0  0  0  0  0  0  0  0  # atno 4772 bound_to 1244
   -6.1510   22.9198   71.3717 LP  0  0  0  0  0  0  0  0  0  0  0  0  # atno 4775 bound_to 178 
   -7.5711   22.5312   72.0781 LP  0  0  0  0  0  0  0  0  0  0  0  0  # atno 4776 bound_to 178 
   -3.4001   24.7529   72.3571 LP  0  0  0  0  0  0  0  0  0  0  0  0  # atno 4779 bound_to 171 
   -1.8262   24.4163   72.6333 LP  0  0  0  0  0  0  0  0  0  0  0  0  # atno 4780 bound_to 171 
   -7.1708   25.8420   63.0659 LP  0  0  0  0  0  0  0  0  0  0  0  0  # atno 4783 bound_to 185 
   -8.2113   26.7795   63.9056 LP  0  0  0  0  0  0  0  0  0  0  0  0  # atno 4784 bound_to 185 
   -1.7839   17.5258   72.9035 LP  0  0  0  0  0  0  0  0  0  0  0  0  # atno 4785 bound_to 346 
   -3.1257   18.4302   73.1233 LP  0  0  0  0  0  0  0  0  0  0  0  0  # atno 4786 bound_to 346 
   -2.6369   21.5783   75.7147 LP  0  0  0  0  0  0  0  0  0  0  0  0  # atno 4787 bound_to 339 
   -3.4228   22.0567   74.3656 LP  0  0  0  0  0  0  0  0  0  0  0  0  # atno 4788 bound_to 339 
   -7.4412   28.2229   65.5229 LP  0  0  0  0  0  0  0  0  0  0  0  0  # atno 4797 bound_to 154 
   -6.9448   29.7084   65.0611 LP  0  0  0  0  0  0  0  0  0  0  0  0  # atno 4798 bound_to 154 

> <Gold.Score>
     Score     S(PLP)   S(hbond)     S(cho)   S(metal)  DE(clash)   DE(tors)     intcor
     48.13     -44.77       1.35       0.00       0.00       0.00       1.46       2.22

> <Gold.PLP.Fitness>
48.1250

> <Gold.PLP.PLP>
-44.7737

> <Gold.PLP.part.hbond>
-2.5990

> <Gold.PLP.part.metal>
0.0000

> <Gold.PLP.part.buried>
-4.2096

> <Gold.PLP.part.nonpolar>
-38.3023

> <Gold.PLP.part.repulsive>
0.0779

> <Gold.PLP.ligand.clash>
0.0000

> <Gold.PLP.ligand.torsion>
1.4602

> <Gold.PLP.Chemscore.Hbond>
1.3500

> <Gold.PLP.Chemscore.CHOScore>
0.0000

> <Gold.PLP.Chemscore.Metal>
0.0000

> <Gold.Chemscore.Hbonds>
donor molecule, donor type, donor heavy atom, donor atom, acceptor molecule, acceptor atom, score
      L1  H    14    28       P1  1441  0.40
      P1  H  1105  4261       L1     4  0.95

> <Gold.PLP.Chemscore.Internal.Correction>
2.2218

