unknown|prepared_Mpro-x1249|sdf|1|dock4
  -GOLD-   5 72214353D 1   1.00000     0.00000

 33 34  0  0  0  0  0  0  0  0  1 V2000
  -12.1578   14.4162   68.8660 O   0  0  0  0  0  0  0  0  0  0  0  0
  -11.7656   15.2749   69.7193 C   0  0  0  0  0  0  0  0  0  0  0  0
  -10.7470   16.1537   69.3104 N   0  0  0  0  0  0  0  0  0  0  0  0
  -10.1202   16.1390   68.0042 C   0  0  0  0  0  0  0  0  0  0  0  0
   -9.2647   17.3135   67.7433 C   0  0  0  0  0  0  0  0  0  0  0  0
   -9.4341   18.4462   68.5469 C   0  0  0  0  0  0  0  0  0  0  0  0
   -8.6638   19.5777   68.3532 C   0  0  0  0  0  0  0  0  0  0  0  0
   -7.6921   19.6142   67.3442 C   0  0  0  0  0  0  0  0  0  0  0  0
   -6.8927   20.8067   67.1643 C   0  0  0  0  0  0  0  0  0  0  0  0
   -6.2390   21.7471   67.0152 N   0  0  0  0  0  0  0  0  0  0  0  0
   -7.5189   18.5031   66.5487 C   0  0  0  0  0  0  0  0  0  0  0  0
   -8.3071   17.3745   66.7618 C   0  0  0  0  0  0  0  0  0  0  0  0
  -12.3986   15.2506   70.9875 N   0  0  0  0  0  0  0  0  0  0  0  0
  -11.8867   16.1135   72.0323 C   0  0  0  0  0  0  0  0  0  0  0  0
  -11.9979   15.4506   73.3883 C   0  0  0  0  0  0  0  0  0  0  0  0
  -13.2871   14.9535   73.5941 O   0  0  0  0  0  0  0  0  0  0  0  0
  -13.4090   13.8734   72.7001 C   0  0  0  0  0  0  0  0  0  0  0  0
  -13.5237   14.4270   71.3109 C   0  0  0  0  0  0  0  0  0  0  0  0
  -10.4308   16.8683   70.0145 H   0  0  0  0  0  0  0  0  0  0  0  0
   -9.4962   15.2120   67.8466 H   0  0  0  0  0  0  0  0  0  0  0  0
  -10.8976   16.1062   67.2335 H   0  0  0  0  0  0  0  0  0  0  0  0
  -10.1874   18.4035   69.3180 H   0  0  0  0  0  0  0  0  0  0  0  0
   -8.7717   20.4586   68.9536 H   0  0  0  0  0  0  0  0  0  0  0  0
   -6.7603   18.5214   65.7516 H   0  0  0  0  0  0  0  0  0  0  0  0
   -8.1586   16.5161   66.1220 H   0  0  0  0  0  0  0  0  0  0  0  0
  -10.7903   16.3280   71.8809 H   0  0  0  0  0  0  0  0  0  0  0  0
  -12.3705   17.1093   71.9864 H   0  0  0  0  0  0  0  0  0  0  0  0
  -11.2980   14.5983   73.4058 H   0  0  0  0  0  0  0  0  0  0  0  0
  -11.7063   16.1677   74.1520 H   0  0  0  0  0  0  0  0  0  0  0  0
  -14.3577   13.3202   72.9645 H   0  0  0  0  0  0  0  0  0  0  0  0
  -12.5519   13.1784   72.7921 H   0  0  0  0  0  0  0  0  0  0  0  0
  -13.6898   13.5950   70.6003 H   0  0  0  0  0  0  0  0  0  0  0  0
  -14.4453   15.0599   71.2687 H   0  0  0  0  0  0  0  0  0  0  0  0
  1  2  2  0  0  0  0
  2  3  1  0  0  0  0
  3  4  1  0  0  0  0
  4  5  1  0  0  0  0
  5  6  2  0  0  0  0
  6  7  1  0  0  0  0
  7  8  2  0  0  0  0
  8  9  1  0  0  0  0
  9 10  3  0  0  0  0
  8 11  1  0  0  0  0
 11 12  2  0  0  0  0
  2 13  1  0  0  0  0
 13 14  1  0  0  0  0
 14 15  1  0  0  0  0
 15 16  1  0  0  0  0
 16 17  1  0  0  0  0
 17 18  1  0  0  0  0
  5 12  1  0  0  0  0
 18 13  1  0  0  0  0
  3 19  1  0  0  0  0
  4 20  1  0  0  0  0
  4 21  1  0  0  0  0
  6 22  1  0  0  0  0
  7 23  1  0  0  0  0
 11 24  1  0  0  0  0
 12 25  1  0  0  0  0
 14 26  1  0  0  0  0
 14 27  1  0  0  0  0
 15 28  1  0  0  0  0
 15 29  1  0  0  0  0
 17 30  1  0  0  0  0
 17 31  1  0  0  0  0
 18 32  1  0  0  0  0
 18 33  1  0  0  0  0
M  END
> <Gold.Version>
2022.1.0

> <Gold.Id.Protein>
6LU7|6LU7_protein|mol2

> <Gold.PLP.Fitness>
44.9799

> <Gold.PLP.PLP>
-42.6158

> <Gold.PLP.part.hbond>
-1.1880

> <Gold.PLP.part.metal>
0.0000

> <Gold.PLP.part.buried>
-6.4119

> <Gold.PLP.part.nonpolar>
-36.8500

> <Gold.PLP.part.repulsive>
0.4564

> <Gold.PLP.ligand.clash>
0.0023

> <Gold.PLP.ligand.torsion>
0.3171

> <Gold.PLP.Chemscore.Hbond>
1.0000

> <Gold.PLP.Chemscore.CHOScore>
0.0000

> <Gold.PLP.Chemscore.Metal>
0.0000

> <Gold.Chemscore.Hbonds>
donor molecule, donor type, donor heavy atom, donor atom, acceptor molecule, acceptor atom, score
      P1  H   180  3804       L1    10  1.00

> <Gold.PLP.Chemscore.Internal.Correction>
0.0004

> <Gold.Protein.RotatedTorsions>
[ 3973 1471 1470 1467 ] final   -5.24 input   60.00 | X-H torsion
[ 3372  414  413  411 ] final  163.36 input   60.00 | X-H torsion
[ 4268 1114 1113 1110 ] final   -1.91 input   59.99 | X-H torsion
[ 4409  924  923  921 ] final    4.71 input   59.99 | X-H torsion
[ 4183 1244 1243 1241 ] final   24.05 input   59.99 | X-H torsion
[ 3800  178  177  174 ] final  168.88 input   60.00 | X-H torsion
[ 3793  171  170  167 ] final  137.29 input   60.00 | X-H torsion
[ 3576  185  184  181 ] final  -62.53 input   60.00 | X-H torsion
[ 3523  346  345  342 ] final -120.12 input   60.01 | X-H torsion
[ 3515  339  338  335 ] final  -85.46 input   60.00 | X-H torsion
[ 3663  154  153  150 ] final -100.11 input   60.00 | X-H torsion
[ 4280 1130 1129 1126 ] final  106.32 input   60.00 | X-H torsion

> <Gold.Protein.ActiveResidues>
 VAL20   THR21   CYS22   GLY23   THR24   THR25   THR26   LEU27   ASN28   PRO39  
 ARG40   HIS41   VAL42   CYS44   THR45   SER46   ASP48   MET49   LEU50   PRO52  
 TYR54   TYR118  ASN119  ILE136  GLY138  SER139  PHE140  LEU141  ASN142  GLY143 
 SER144  CYS145  GLY146  SER147  TYR161  HIS163  HIS164  MET165  GLU166  LEU167 
 PRO168  THR169  GLY170  VAL171  HIS172  ALA173  PHE181  PHE185  VAL186  ASP187 
 ARG188  GLN189  THR190  ALA191  GLN192  ALA193 

> <Gold.Protein.RotatedAtoms>
  -14.8827   16.9600   76.2754 H   0  0  0  0  0  0  0  0  0  0  0  0  # atno 3372 bound_to 414 
   -2.9796   20.5844   75.4310 H   0  0  0  0  0  0  0  0  0  0  0  0  # atno 3515 bound_to 339 
   -2.5740   16.7449   72.5625 H   0  0  0  0  0  0  0  0  0  0  0  0  # atno 3523 bound_to 346 
   -8.2925   25.0660   63.4336 H   0  0  0  0  0  0  0  0  0  0  0  0  # atno 3576 bound_to 185 
   -7.0088   28.4472   65.4636 H   0  0  0  0  0  0  0  0  0  0  0  0  # atno 3663 bound_to 154 
   -2.2227   23.4248   71.9150 H   0  0  0  0  0  0  0  0  0  0  0  0  # atno 3793 bound_to 171 
   -7.6612   23.1633   72.4384 H   0  0  0  0  0  0  0  0  0  0  0  0  # atno 3800 bound_to 178 
  -15.0328    8.2535   76.7968 H   0  0  0  0  0  0  0  0  0  0  0  0  # atno 3973 bound_to 1471
  -21.0563   12.5149   64.0914 H   0  0  0  0  0  0  0  0  0  0  0  0  # atno 4183 bound_to 1244
  -13.1780   16.4085   62.1399 H   0  0  0  0  0  0  0  0  0  0  0  0  # atno 4268 bound_to 1114
  -15.5213   19.0589   59.4945 H   0  0  0  0  0  0  0  0  0  0  0  0  # atno 4280 bound_to 1130
  -11.6635   15.2611   56.3154 H   0  0  0  0  0  0  0  0  0  0  0  0  # atno 4409 bound_to 924 
  -15.3161    8.9737   78.2283 LP  0  0  0  0  0  0  0  0  0  0  0  0  # atno 4696 bound_to 1471
  -15.6877    7.3978   78.0161 LP  0  0  0  0  0  0  0  0  0  0  0  0  # atno 4697 bound_to 1471
  -13.8736   18.1009   75.7026 LP  0  0  0  0  0  0  0  0  0  0  0  0  # atno 4731 bound_to 414 
  -15.3385   17.8826   75.0148 LP  0  0  0  0  0  0  0  0  0  0  0  0  # atno 4732 bound_to 414 
  -12.5824   15.2514   61.1630 LP  0  0  0  0  0  0  0  0  0  0  0  0  # atno 4733 bound_to 1114
  -14.1550   15.6796   61.0619 LP  0  0  0  0  0  0  0  0  0  0  0  0  # atno 4734 bound_to 1114
  -11.8093   15.3321   57.9345 LP  0  0  0  0  0  0  0  0  0  0  0  0  # atno 4763 bound_to 924 
  -10.3893   14.8929   57.2582 LP  0  0  0  0  0  0  0  0  0  0  0  0  # atno 4764 bound_to 924 
  -20.1631   13.8562   64.3179 LP  0  0  0  0  0  0  0  0  0  0  0  0  # atno 4771 bound_to 1244
  -20.1429   13.0923   62.8747 LP  0  0  0  0  0  0  0  0  0  0  0  0  # atno 4772 bound_to 1244
   -6.2969   23.8945   71.9362 LP  0  0  0  0  0  0  0  0  0  0  0  0  # atno 4775 bound_to 178 
   -6.6519   22.3839   71.4275 LP  0  0  0  0  0  0  0  0  0  0  0  0  # atno 4776 bound_to 178 
   -3.5660   24.3325   72.0544 LP  0  0  0  0  0  0  0  0  0  0  0  0  # atno 4779 bound_to 171 
   -2.1759   24.8119   72.7645 LP  0  0  0  0  0  0  0  0  0  0  0  0  # atno 4780 bound_to 171 
   -7.1534   26.1962   63.1638 LP  0  0  0  0  0  0  0  0  0  0  0  0  # atno 4783 bound_to 185 
   -8.5032   26.5767   64.0003 LP  0  0  0  0  0  0  0  0  0  0  0  0  # atno 4784 bound_to 185 
   -1.9914   18.1601   73.1156 LP  0  0  0  0  0  0  0  0  0  0  0  0  # atno 4785 bound_to 346 
   -3.5995   17.9580   72.9159 LP  0  0  0  0  0  0  0  0  0  0  0  0  # atno 4786 bound_to 346 
   -2.8234   22.1960   75.2686 LP  0  0  0  0  0  0  0  0  0  0  0  0  # atno 4787 bound_to 339 
   -3.6665   21.3390   74.1635 LP  0  0  0  0  0  0  0  0  0  0  0  0  # atno 4788 bound_to 339 
   -7.3598   29.9583   64.9721 LP  0  0  0  0  0  0  0  0  0  0  0  0  # atno 4797 bound_to 154 
   -8.5620   28.8977   65.2827 LP  0  0  0  0  0  0  0  0  0  0  0  0  # atno 4798 bound_to 154 

$$$$
