#       Name:                unknown
#       Creating user name   williammccorkindale
#       Creation time:       Tue Jun  7 14:55:34 2022


#       File generated by GOLD software.
#

@<TRIPOS>MOLECULE
unknown|prepared_Mpro-x0354|mol2|1|dock4
    43    44     1
SMALL
NO_CHARGES


@<TRIPOS>ATOM
      1 C1         -12.9004  11.8966  63.3982 C.3            1 RES1               0.0000
      2 N2         -11.8791  12.8697  63.6339 N.3            1 RES1               0.0000
      3 C3         -10.5873  12.2602  63.7180 C.3            1 RES1               0.0000
      4 C4         -10.4070  11.4717  65.0129 C.3            1 RES1               0.0000
      5 N5         -10.7207  12.3672  66.0897 N.am           1 RES1               0.0000
      6 C6         -11.9846  13.0546  66.0867 C.3            1 RES1               0.0000
      7 C7         -12.1292  13.7341  64.7423 C.3            1 RES1               0.0000
      8 C8          -9.7917  12.5634  67.1347 C.2            1 RES1               0.0000
      9 O9          -8.6776  11.9742  67.1605 O.2            1 RES1               0.0000
     10 C10        -10.1360  13.4914  68.2370 C.3            1 RES1               0.0000
     11 O11        -11.2572  12.9801  68.9148 O.3            1 RES1               0.0000
     12 C12        -11.7629  13.6914  70.0052 C.ar           1 RES1               0.0000
     13 C13        -12.5948  13.0983  70.9317 C.ar           1 RES1               0.0000
     14 C14        -13.0922  13.8053  72.0082 C.ar           1 RES1               0.0000
     15 C15        -12.7881  15.1357  72.2176 C.ar           1 RES1               0.0000
     16 C16        -13.3268  15.8910  73.3781 C.3            1 RES1               0.0000
     17 C17        -11.9548  15.7268  71.2881 C.ar           1 RES1               0.0000
     18 C18        -11.4572  15.0200  70.2116 C.ar           1 RES1               0.0000
     19 H19        -12.4832  10.9162  63.0342 H              1 RES1               0.0000
     20 H20        -13.5087  11.7290  64.3112 H              1 RES1               0.0000
     21 H21        -13.5259  12.2709  62.5417 H              1 RES1               0.0000
     22 H22         -9.8185  13.0474  63.7196 H              1 RES1               0.0000
     23 H23        -10.4923  11.5362  62.8911 H              1 RES1               0.0000
     24 H24        -11.0615  10.5763  65.0273 H              1 RES1               0.0000
     25 H25         -9.3435  11.1422  65.0098 H              1 RES1               0.0000
     26 H26        -12.8400  12.3715  66.2441 H              1 RES1               0.0000
     27 H27        -12.0050  13.8185  66.8690 H              1 RES1               0.0000
     28 H28        -11.3489  14.5431  64.7141 H              1 RES1               0.0000
     29 H29        -13.1209  14.1931  64.7135 H              1 RES1               0.0000
     30 H30        -10.3358  14.5202  67.8503 H              1 RES1               0.0000
     31 H31         -9.2613  13.6221  68.9380 H              1 RES1               0.0000
     32 H32        -12.8462  12.0514  70.7848 H              1 RES1               0.0000
     33 H33        -13.7511  13.3274  72.7379 H              1 RES1               0.0000
     34 H34        -14.3519  16.2586  73.1313 H              1 RES1               0.0000
     35 H35        -13.3185  15.2841  74.3081 H              1 RES1               0.0000
     36 H36        -12.7095  16.7829  73.5856 H              1 RES1               0.0000
     37 H37        -11.7087  16.7728  71.4423 H              1 RES1               0.0000
     38 H38        -10.7987  15.5085  69.4875 H              1 RES1               0.0000
     39 ****       -11.8952  13.4682  62.8329 LP             1 RES1               0.0000
     40 ****        -8.4280  11.3442  66.4252 LP             1 RES1               0.0000
     41 ****        -8.0434  12.1368  67.9165 LP             1 RES1               0.0000
     42 ****       -11.0110  12.0692  69.2460 LP             1 RES1               0.0000
     43 ****       -11.9961  12.9029  68.2454 LP             1 RES1               0.0000
@<TRIPOS>BOND
    1    1    2 1     
    2    2    3 1     
    3    3    4 1     
    4    4    5 1     
    5    5    6 1     
    6    6    7 1     
    7    5    8 am    
    8    8    9 2     
    9    8   10 1     
   10   10   11 1     
   11   11   12 1     
   12   12   13 ar    
   13   13   14 ar    
   14   14   15 ar    
   15   15   16 1     
   16   15   17 ar    
   17   17   18 ar    
   18    7    2 1     
   19   12   18 ar    
   20    1   19 1     
   21    1   20 1     
   22    1   21 1     
   23    3   22 1     
   24    3   23 1     
   25    4   24 1     
   26    4   25 1     
   27    6   26 1     
   28    6   27 1     
   29    7   28 1     
   30    7   29 1     
   31   10   30 1     
   32   10   31 1     
   33   13   32 1     
   34   14   33 1     
   35   16   34 1     
   36   16   35 1     
   37   16   36 1     
   38   17   37 1     
   39   18   38 1     
   40    2   39 1     
   41    9   40 1     
   42    9   41 1     
   43   11   42 1     
   44   11   43 1     
@<TRIPOS>SUBSTRUCTURE
      1 RES1           1
@<TRIPOS>SET
LONE_PAIRS      STATIC     ATOMS    <user>   **** ""
5 39 40 41 42 43
ATOM$BLUE        STATIC     ATOMS    COLORGROUP SYSTEM
5 39 40 41 42 43
@<TRIPOS>COMMENT
> <Gold.Version>
2022.1.0

> <Gold.Id.Protein>
6LU7|6LU7_protein|mol2

> <Gold.Protein.RotatedTorsions>
[ 3973 1471 1470 1467 ] final -150.53 input   60.00 | X-H torsion
[ 3372  414  413  411 ] final  157.23 input   60.00 | X-H torsion
[ 4268 1114 1113 1110 ] final   60.13 input   59.99 | X-H torsion
[ 4409  924  923  921 ] final   54.35 input   59.99 | X-H torsion
[ 4183 1244 1243 1241 ] final   23.35 input   59.99 | X-H torsion
[ 3800  178  177  174 ] final  -70.62 input   60.00 | X-H torsion
[ 3793  171  170  167 ] final -112.77 input   60.00 | X-H torsion
[ 3576  185  184  181 ] final  -67.71 input   60.00 | X-H torsion
[ 3523  346  345  342 ] final  -22.69 input   60.01 | X-H torsion
[ 3515  339  338  335 ] final   58.40 input   60.00 | X-H torsion
[ 3663  154  153  150 ] final   45.58 input   60.00 | X-H torsion
[ 4280 1130 1129 1126 ] final -125.21 input   60.00 | X-H torsion

> <Gold.Protein.ActiveResidues>
 VAL20   THR21   CYS22   GLY23   THR24   THR25   THR26   LEU27   ASN28   PRO39  
 ARG40   HIS41   VAL42   CYS44   THR45   SER46   ASP48   MET49   LEU50   PRO52  
 TYR54   TYR118  ASN119  ILE136  GLY138  SER139  PHE140  LEU141  ASN142  GLY143 
 SER144  CYS145  GLY146  SER147  TYR161  HIS163  HIS164  MET165  GLU166  LEU167 
 PRO168  THR169  GLY170  VAL171  HIS172  ALA173  PHE181  PHE185  VAL186  ASP187 
 ARG188  GLN189  THR190  ALA191  GLN192  ALA193 

> <Gold.Protein.RotatedAtoms>
  -14.7920   16.9772   76.3140 H   0  0  0  0  0  0  0  0  0  0  0  0  # atno 3372 bound_to 414 
   -3.5861   21.7174   74.1993 H   0  0  0  0  0  0  0  0  0  0  0  0  # atno 3515 bound_to 339 
   -3.6547   17.6164   72.7911 H   0  0  0  0  0  0  0  0  0  0  0  0  # atno 3523 bound_to 346 
   -8.2215   25.0499   63.3907 H   0  0  0  0  0  0  0  0  0  0  0  0  # atno 3576 bound_to 185 
   -8.5537   29.2964   65.1582 H   0  0  0  0  0  0  0  0  0  0  0  0  # atno 3663 bound_to 154 
   -2.0512   24.7074   72.7370 H   0  0  0  0  0  0  0  0  0  0  0  0  # atno 3793 bound_to 171 
   -6.6478   22.3938   71.4267 H   0  0  0  0  0  0  0  0  0  0  0  0  # atno 3800 bound_to 178 
  -15.4774    8.6851   78.4731 H   0  0  0  0  0  0  0  0  0  0  0  0  # atno 3973 bound_to 1471
  -21.0564   12.5203   64.1015 H   0  0  0  0  0  0  0  0  0  0  0  0  # atno 4183 bound_to 1244
  -14.0415   16.2927   61.7252 H   0  0  0  0  0  0  0  0  0  0  0  0  # atno 4268 bound_to 1114
  -16.2833   19.1471   57.9928 H   0  0  0  0  0  0  0  0  0  0  0  0  # atno 4280 bound_to 1130
  -10.9108   15.0349   56.3201 H   0  0  0  0  0  0  0  0  0  0  0  0  # atno 4409 bound_to 924 
  -15.5850    7.2981   77.6289 LP  0  0  0  0  0  0  0  0  0  0  0  0  # atno 4696 bound_to 1471
  -14.9710    8.6387   76.9273 LP  0  0  0  0  0  0  0  0  0  0  0  0  # atno 4697 bound_to 1471
  -13.9064   18.1555   75.6245 LP  0  0  0  0  0  0  0  0  0  0  0  0  # atno 4731 bound_to 414 
  -15.3970   17.8106   75.0540 LP  0  0  0  0  0  0  0  0  0  0  0  0  # atno 4732 bound_to 414 
  -12.4678   15.9058   61.8723 LP  0  0  0  0  0  0  0  0  0  0  0  0  # atno 4733 bound_to 1114
  -13.3999   15.1419   60.7703 LP  0  0  0  0  0  0  0  0  0  0  0  0  # atno 4734 bound_to 1114
  -12.1877   15.4333   57.2468 LP  0  0  0  0  0  0  0  0  0  0  0  0  # atno 4763 bound_to 924 
  -10.7688   15.0194   57.9411 LP  0  0  0  0  0  0  0  0  0  0  0  0  # atno 4764 bound_to 924 
  -20.1567   13.8602   64.3093 LP  0  0  0  0  0  0  0  0  0  0  0  0  # atno 4771 bound_to 1244
  -20.1492   13.0828   62.8732 LP  0  0  0  0  0  0  0  0  0  0  0  0  # atno 4772 bound_to 1244
   -7.6674   23.1550   72.4412 LP  0  0  0  0  0  0  0  0  0  0  0  0  # atno 4775 bound_to 178 
   -6.3020   23.8984   71.9413 LP  0  0  0  0  0  0  0  0  0  0  0  0  # atno 4776 bound_to 178 
   -2.3672   23.3817   71.8480 LP  0  0  0  0  0  0  0  0  0  0  0  0  # atno 4779 bound_to 171 
   -3.5475   24.4709   72.1430 LP  0  0  0  0  0  0  0  0  0  0  0  0  # atno 4780 bound_to 171 
   -7.1675   26.2741   63.1949 LP  0  0  0  0  0  0  0  0  0  0  0  0  # atno 4783 bound_to 185 
   -8.5605   26.5150   64.0123 LP  0  0  0  0  0  0  0  0  0  0  0  0  # atno 4784 bound_to 185 
   -2.2278   16.8517   72.6258 LP  0  0  0  0  0  0  0  0  0  0  0  0  # atno 4785 bound_to 346 
   -2.2748   18.3887   73.1755 LP  0  0  0  0  0  0  0  0  0  0  0  0  # atno 4786 bound_to 346 
   -3.1886   20.4461   75.1342 LP  0  0  0  0  0  0  0  0  0  0  0  0  # atno 4787 bound_to 339 
   -2.6906   21.9479   75.5384 LP  0  0  0  0  0  0  0  0  0  0  0  0  # atno 4788 bound_to 339 
   -7.3682   28.2415   65.5186 LP  0  0  0  0  0  0  0  0  0  0  0  0  # atno 4797 bound_to 154 
   -6.9978   29.7593   65.0437 LP  0  0  0  0  0  0  0  0  0  0  0  0  # atno 4798 bound_to 154 

> <Gold.Score>
     Score     S(PLP)   S(hbond)     S(cho)   S(metal)  DE(clash)   DE(tors)     intcor
     46.91     -47.43       0.00       0.00       0.00       0.00       0.26       0.00

> <Gold.PLP.Fitness>
46.9147

> <Gold.PLP.PLP>
-47.4332

> <Gold.PLP.part.hbond>
0.0000

> <Gold.PLP.part.metal>
0.0000

> <Gold.PLP.part.buried>
-6.6748

> <Gold.PLP.part.nonpolar>
-42.0630

> <Gold.PLP.part.repulsive>
0.4390

> <Gold.PLP.ligand.clash>
0.0000

> <Gold.PLP.ligand.torsion>
0.2606

> <Gold.PLP.Chemscore.Hbond>
0.0000

> <Gold.PLP.Chemscore.CHOScore>
0.0000

> <Gold.PLP.Chemscore.Metal>
0.0000

> <Gold.PLP.Chemscore.Internal.Correction>
0.0027

