#       Name:                unknown
#       Creating user name   williammccorkindale
#       Creation time:       Tue Jun  7 14:55:36 2022


#       File generated by GOLD software.
#

@<TRIPOS>MOLECULE
unknown|prepared_Mpro-x0104|mol2|1|dock5
    31    32     1
SMALL
NO_CHARGES


@<TRIPOS>ATOM
      1 C1          -7.8392  19.3257  66.2229 C.3            1 RES1               0.0000
      2 C2          -8.7415  18.1596  66.4316 C.2            1 RES1               0.0000
      3 O3          -9.0882  17.4033  65.5036 O.2            1 RES1               0.0000
      4 N4          -9.2510  17.8618  67.7291 N.am           1 RES1               0.0000
      5 C5         -10.1290  16.7275  67.9297 C.3            1 RES1               0.0000
      6 C6         -10.7322  16.8417  69.3082 C.3            1 RES1               0.0000
      7 C7         -11.5061  15.6442  69.6868 C.2            1 RES1               0.0000
      8 C8         -11.9307  14.5807  68.9213 C.2            1 RES1               0.0000
      9 N9         -12.6054  13.7259  69.7021 N.pl3          1 RES1               0.0000
     10 C10        -12.6502  14.1840  70.9865 C.ar           1 RES1               0.0000
     11 C11        -13.2155  13.6733  72.1333 C.ar           1 RES1               0.0000
     12 C12        -13.0822  14.3957  73.3001 C.ar           1 RES1               0.0000
     13 C13        -12.4071  15.5978  73.3461 C.ar           1 RES1               0.0000
     14 F14        -12.3051  16.2655  74.5122 F              1 RES1               0.0000
     15 C15        -11.8595  16.0666  72.1753 C.ar           1 RES1               0.0000
     16 C16        -11.9577  15.3870  70.9626 C.ar           1 RES1               0.0000
     17 H17         -8.3616  20.2559  66.5144 H              1 RES1               0.0000
     18 H18         -7.5449  19.3382  65.1387 H              1 RES1               0.0000
     19 H19         -6.8916  19.2292  66.7910 H              1 RES1               0.0000
     20 H20         -8.9718  18.4825  68.5174 H              1 RES1               0.0000
     21 H21         -9.6067  15.7570  67.8284 H              1 RES1               0.0000
     22 H22        -10.9066  16.7477  67.1332 H              1 RES1               0.0000
     23 H23        -11.3917  17.7268  69.4012 H              1 RES1               0.0000
     24 H24         -9.8873  17.0236  70.0149 H              1 RES1               0.0000
     25 H25        -11.7322  14.4901  67.8794 H              1 RES1               0.0000
     26 H26        -13.0256  12.8477  69.3565 H              1 RES1               0.0000
     27 H27        -13.7521  12.7439  72.1556 H              1 RES1               0.0000
     28 H28        -13.5206  14.0091  74.2194 H              1 RES1               0.0000
     29 H29        -11.3133  17.0181  72.1679 H              1 RES1               0.0000
     30 ****        -8.7584  17.5686  64.5741 LP             1 RES1               0.0000
     31 ****        -9.6961  16.6311  65.6885 LP             1 RES1               0.0000
@<TRIPOS>BOND
    1    1    2 1     
    2    2    3 2     
    3    2    4 am    
    4    4    5 1     
    5    5    6 1     
    6    6    7 1     
    7    7    8 2     
    8    8    9 1     
    9    9   10 1     
   10   10   11 ar    
   11   11   12 ar    
   12   12   13 ar    
   13   13   14 1     
   14   13   15 ar    
   15   15   16 ar    
   16   16    7 1     
   17   10   16 ar    
   18    1   17 1     
   19    1   18 1     
   20    1   19 1     
   21    4   20 1     
   22    5   21 1     
   23    5   22 1     
   24    6   23 1     
   25    6   24 1     
   26    8   25 1     
   27    9   26 1     
   28   11   27 1     
   29   12   28 1     
   30   15   29 1     
   31    3   30 1     
   32    3   31 1     
@<TRIPOS>SUBSTRUCTURE
      1 RES1           1
@<TRIPOS>SET
LONE_PAIRS      STATIC     ATOMS    <user>   **** ""
2 30 31
DONOR_HYDROGENS      STATIC     ATOMS    <user>   **** ""
2 20 26
ATOM$BLUE        STATIC     ATOMS    COLORGROUP SYSTEM
2 30 31
ATOM$RED        STATIC     ATOMS    COLORGROUP SYSTEM
2 20 26
@<TRIPOS>COMMENT
> <Gold.Version>
2022.1.0

> <Gold.Id.Protein>
6LU7|6LU7_protein|mol2

> <Gold.Protein.RotatedTorsions>
[ 3973 1471 1470 1467 ] final -177.83 input   60.00 | X-H torsion
[ 3372  414  413  411 ] final   92.46 input   60.00 | X-H torsion
[ 4268 1114 1113 1110 ] final -127.97 input   59.99 | X-H torsion
[ 4409  924  923  921 ] final   11.30 input   59.99 | X-H torsion
[ 4183 1244 1243 1241 ] final    1.85 input   59.99 | X-H torsion
[ 3800  178  177  174 ] final  -30.36 input   60.00 | X-H torsion
[ 3793  171  170  167 ] final  -58.24 input   60.00 | X-H torsion
[ 3576  185  184  181 ] final  -99.48 input   60.00 | X-H torsion
[ 3523  346  345  342 ] final   93.11 input   60.01 | X-H torsion
[ 3515  339  338  335 ] final  -52.09 input   60.00 | X-H torsion
[ 3663  154  153  150 ] final   23.47 input   60.00 | X-H torsion
[ 4280 1130 1129 1126 ] final -149.90 input   60.00 | X-H torsion

> <Gold.Protein.ActiveResidues>
 VAL20   THR21   CYS22   GLY23   THR24   THR25   THR26   LEU27   ASN28   PRO39  
 ARG40   HIS41   VAL42   CYS44   THR45   SER46   ASP48   MET49   LEU50   PRO52  
 TYR54   TYR118  ASN119  ILE136  GLY138  SER139  PHE140  LEU141  ASN142  GLY143 
 SER144  CYS145  GLY146  SER147  TYR161  HIS163  HIS164  MET165  GLU166  LEU167 
 PRO168  THR169  GLY170  VAL171  HIS172  ALA173  PHE181  PHE185  VAL186  ASP187 
 ARG188  GLN189  THR190  ALA191  GLN192  ALA193 

> <Gold.Protein.RotatedAtoms>
  -13.9657   17.5405   76.2385 H   0  0  0  0  0  0  0  0  0  0  0  0  # atno 3372 bound_to 414 
   -3.2748   20.4439   75.0043 H   0  0  0  0  0  0  0  0  0  0  0  0  # atno 3515 bound_to 339 
   -2.3395   18.4126   73.1815 H   0  0  0  0  0  0  0  0  0  0  0  0  # atno 3523 bound_to 346 
   -7.7653   25.1111   63.1654 H   0  0  0  0  0  0  0  0  0  0  0  0  # atno 3576 bound_to 185 
   -8.5666   28.9545   65.2668 H   0  0  0  0  0  0  0  0  0  0  0  0  # atno 3663 bound_to 154 
   -2.8550   24.9982   72.6672 H   0  0  0  0  0  0  0  0  0  0  0  0  # atno 3793 bound_to 171 
   -6.1952   22.8479   71.3617 H   0  0  0  0  0  0  0  0  0  0  0  0  # atno 3800 bound_to 178 
  -15.6239    8.2795   78.5691 H   0  0  0  0  0  0  0  0  0  0  0  0  # atno 3973 bound_to 1471
  -21.0162   12.7278   64.3796 H   0  0  0  0  0  0  0  0  0  0  0  0  # atno 4183 bound_to 1244
  -12.6501   15.2155   61.0995 H   0  0  0  0  0  0  0  0  0  0  0  0  # atno 4268 bound_to 1114
  -16.1144   18.8280   58.1658 H   0  0  0  0  0  0  0  0  0  0  0  0  # atno 4280 bound_to 1130
  -11.5676   15.2316   56.2765 H   0  0  0  0  0  0  0  0  0  0  0  0  # atno 4409 bound_to 924 
  -15.4234    7.3861   77.2238 LP  0  0  0  0  0  0  0  0  0  0  0  0  # atno 4696 bound_to 1471
  -14.9850    8.9591   77.2357 LP  0  0  0  0  0  0  0  0  0  0  0  0  # atno 4697 bound_to 1471
  -14.6769   18.3015   74.9882 LP  0  0  0  0  0  0  0  0  0  0  0  0  # atno 4731 bound_to 414 
  -15.4586   17.0973   75.7663 LP  0  0  0  0  0  0  0  0  0  0  0  0  # atno 4732 bound_to 414 
  -14.1865   15.7509   61.1240 LP  0  0  0  0  0  0  0  0  0  0  0  0  # atno 4733 bound_to 1114
  -13.0825   16.3817   62.1487 LP  0  0  0  0  0  0  0  0  0  0  0  0  # atno 4734 bound_to 1114
  -11.8904   15.3552   57.8666 LP  0  0  0  0  0  0  0  0  0  0  0  0  # atno 4763 bound_to 924 
  -10.4047   14.8995   57.3652 LP  0  0  0  0  0  0  0  0  0  0  0  0  # atno 4764 bound_to 924 
  -19.9850   13.9312   64.0106 LP  0  0  0  0  0  0  0  0  0  0  0  0  # atno 4771 bound_to 1244
  -20.3614   12.8028   62.8918 LP  0  0  0  0  0  0  0  0  0  0  0  0  # atno 4772 bound_to 1244
   -7.6068   22.5894   72.1288 LP  0  0  0  0  0  0  0  0  0  0  0  0  # atno 4775 bound_to 178 
   -6.8184   24.0067   72.3192 LP  0  0  0  0  0  0  0  0  0  0  0  0  # atno 4776 bound_to 178 
   -1.7822   23.8323   72.2962 LP  0  0  0  0  0  0  0  0  0  0  0  0  # atno 4779 bound_to 171 
   -3.3228   23.7273   71.7651 LP  0  0  0  0  0  0  0  0  0  0  0  0  # atno 4780 bound_to 171 
   -7.3921   26.6718   63.4352 LP  0  0  0  0  0  0  0  0  0  0  0  0  # atno 4783 bound_to 185 
   -8.7954   26.0556   63.9989 LP  0  0  0  0  0  0  0  0  0  0  0  0  # atno 4784 bound_to 185 
   -3.6565   17.5522   72.7653 LP  0  0  0  0  0  0  0  0  0  0  0  0  # atno 4785 bound_to 346 
   -2.1705   16.8864   72.6428 LP  0  0  0  0  0  0  0  0  0  0  0  0  # atno 4786 bound_to 346 
   -2.6590   21.8185   75.6201 LP  0  0  0  0  0  0  0  0  0  0  0  0  # atno 4787 bound_to 339 
   -3.5337   21.8580   74.2417 LP  0  0  0  0  0  0  0  0  0  0  0  0  # atno 4788 bound_to 339 
   -7.0489   28.4049   65.4738 LP  0  0  0  0  0  0  0  0  0  0  0  0  # atno 4797 bound_to 154 
   -7.3041   29.9401   64.9791 LP  0  0  0  0  0  0  0  0  0  0  0  0  # atno 4798 bound_to 154 

> <Gold.Score>
     Score     S(PLP)   S(hbond)     S(cho)   S(metal)  DE(clash)   DE(tors)     intcor
     49.67     -47.08       1.00       0.00       0.00       0.00       0.21       0.01

> <Gold.PLP.Fitness>
49.6660

> <Gold.PLP.PLP>
-47.0814

> <Gold.PLP.part.hbond>
-1.0181

> <Gold.PLP.part.metal>
0.0000

> <Gold.PLP.part.buried>
-4.5196

> <Gold.PLP.part.nonpolar>
-42.4652

> <Gold.PLP.part.repulsive>
0.0957

> <Gold.PLP.ligand.clash>
0.0000

> <Gold.PLP.ligand.torsion>
0.2102

> <Gold.PLP.Chemscore.Hbond>
1.0000

> <Gold.PLP.Chemscore.CHOScore>
0.0000

> <Gold.PLP.Chemscore.Metal>
0.0000

> <Gold.Chemscore.Hbonds>
donor molecule, donor type, donor heavy atom, donor atom, acceptor molecule, acceptor atom, score
      P1  H  1105  4261       L1     3  1.00

> <Gold.PLP.Chemscore.Internal.Correction>
0.0050

