#       Name:                unknown
#       Creating user name   williammccorkindale
#       Creation time:       Tue Jun  7 14:55:42 2022


#       File generated by GOLD software.
#

@<TRIPOS>MOLECULE
unknown|prepared_Mpro-x0540|mol2|1|dock2
    42    43     1
SMALL
NO_CHARGES


@<TRIPOS>ATOM
      1 O1         -11.5387  14.9815  68.5416 O.2            1 RES1               0.0000
      2 C2         -10.8729  14.3789  69.4064 C.2            1 RES1               0.0000
      3 N3          -9.9935  13.3504  68.9625 N.am           1 RES1               0.0000
      4 C4          -9.8804  13.0237  67.5786 C.3            1 RES1               0.0000
      5 C5         -10.5622  11.7464  67.1843 C.3            1 RES1               0.0000
      6 C6         -11.2822  12.0200  65.8908 C.ar           1 RES1               0.0000
      7 C7         -12.2123  13.0525  65.8160 C.ar           1 RES1               0.0000
      8 C8         -12.8906  13.3316  64.6478 C.ar           1 RES1               0.0000
      9 N9         -12.6074  12.5556  63.5852 N.ar           1 RES1               0.0000
     10 C10        -11.7339  11.5596  63.5933 C.ar           1 RES1               0.0000
     11 C11        -11.0512  11.2738  64.7576 C.ar           1 RES1               0.0000
     12 N12        -11.0343  14.7534  70.7558 N.am           1 RES1               0.0000
     13 C13        -11.9539  15.8211  71.1665 C.3            1 RES1               0.0000
     14 C14        -13.3518  15.2792  71.0585 C.3            1 RES1               0.0000
     15 C15        -13.5740  14.0772  71.9395 C.3            1 RES1               0.0000
     16 C16        -12.9691  14.2050  73.2969 C.3            1 RES1               0.0000
     17 C17        -12.6764  15.6566  73.5657 C.3            1 RES1               0.0000
     18 C18        -11.7101  16.2492  72.5788 C.3            1 RES1               0.0000
     19 H19         -9.4478  12.8617  69.7074 H              1 RES1               0.0000
     20 H20         -8.8029  12.9096  67.3386 H              1 RES1               0.0000
     21 H21        -10.2487  13.8416  66.9065 H              1 RES1               0.0000
     22 H22         -9.8119  10.9458  67.0402 H              1 RES1               0.0000
     23 H23        -11.3593  11.4379  67.8926 H              1 RES1               0.0000
     24 H24        -12.4197  13.6634  66.6946 H              1 RES1               0.0000
     25 H25        -13.6169  14.1461  64.6088 H              1 RES1               0.0000
     26 H26        -11.5133  10.9379  62.7252 H              1 RES1               0.0000
     27 H27        -10.3211  10.4648  64.8200 H              1 RES1               0.0000
     28 H28        -10.4840  14.2563  71.4787 H              1 RES1               0.0000
     29 H29        -11.8724  16.6729  70.4644 H              1 RES1               0.0000
     30 H30        -13.5803  14.9795  70.0234 H              1 RES1               0.0000
     31 H31        -14.0548  16.0688  71.4109 H              1 RES1               0.0000
     32 H32        -13.2775  13.1329  71.4080 H              1 RES1               0.0000
     33 H33        -14.6900  13.9843  72.0618 H              1 RES1               0.0000
     34 H34        -13.6853  13.8710  74.0829 H              1 RES1               0.0000
     35 H35        -12.0648  13.5553  73.4374 H              1 RES1               0.0000
     36 H36        -13.6275  16.1939  73.5869 H              1 RES1               0.0000
     37 H37        -12.1926  15.7171  74.5699 H              1 RES1               0.0000
     38 H38        -10.6453  16.0744  72.8542 H              1 RES1               0.0000
     39 H39        -11.8420  17.3697  72.6094 H              1 RES1               0.0000
     40 ****       -11.4438  14.7362  67.5769 LP             1 RES1               0.0000
     41 ****       -12.1675  15.7102  68.8127 LP             1 RES1               0.0000
     42 ****       -13.0901  12.7440  62.7299 LP             1 RES1               0.0000
@<TRIPOS>BOND
    1    1    2 2     
    2    2    3 am    
    3    3    4 1     
    4    4    5 1     
    5    5    6 1     
    6    6    7 ar    
    7    7    8 ar    
    8    8    9 ar    
    9    9   10 ar    
   10   10   11 ar    
   11    2   12 am    
   12   12   13 1     
   13   13   14 1     
   14   14   15 1     
   15   15   16 1     
   16   16   17 1     
   17   17   18 1     
   18    6   11 ar    
   19   18   13 1     
   20    3   19 1     
   21    4   20 1     
   22    4   21 1     
   23    5   22 1     
   24    5   23 1     
   25    7   24 1     
   26    8   25 1     
   27   10   26 1     
   28   11   27 1     
   29   12   28 1     
   30   13   29 1     
   31   14   30 1     
   32   14   31 1     
   33   15   32 1     
   34   15   33 1     
   35   16   34 1     
   36   16   35 1     
   37   17   36 1     
   38   17   37 1     
   39   18   38 1     
   40   18   39 1     
   41    1   40 1     
   42    1   41 1     
   43    9   42 1     
@<TRIPOS>SUBSTRUCTURE
      1 RES1           1
@<TRIPOS>SET
LONE_PAIRS      STATIC     ATOMS    <user>   **** ""
3 40 41 42
DONOR_HYDROGENS      STATIC     ATOMS    <user>   **** ""
2 19 28
ATOM$BLUE        STATIC     ATOMS    COLORGROUP SYSTEM
3 40 41 42
ATOM$RED        STATIC     ATOMS    COLORGROUP SYSTEM
2 19 28
@<TRIPOS>COMMENT
> <Gold.Version>
2022.1.0

> <Gold.Id.Protein>
6LU7|6LU7_protein|mol2

> <Gold.Protein.RotatedTorsions>
[ 3973 1471 1470 1467 ] final  -27.23 input   60.00 | X-H torsion
[ 3372  414  413  411 ] final   95.04 input   60.00 | X-H torsion
[ 4268 1114 1113 1110 ] final -108.22 input   59.99 | X-H torsion
[ 4409  924  923  921 ] final -141.27 input   59.99 | X-H torsion
[ 4183 1244 1243 1241 ] final -169.94 input   59.99 | X-H torsion
[ 3800  178  177  174 ] final -178.42 input   60.00 | X-H torsion
[ 3793  171  170  167 ] final   64.57 input   60.00 | X-H torsion
[ 3576  185  184  181 ] final  128.53 input   60.00 | X-H torsion
[ 3523  346  345  342 ] final  151.75 input   60.01 | X-H torsion
[ 3515  339  338  335 ] final   98.76 input   60.00 | X-H torsion
[ 3663  154  153  150 ] final    0.15 input   60.00 | X-H torsion
[ 4280 1130 1129 1126 ] final  126.98 input   60.00 | X-H torsion

> <Gold.Protein.ActiveResidues>
 VAL20   THR21   CYS22   GLY23   THR24   THR25   THR26   LEU27   ASN28   PRO39  
 ARG40   HIS41   VAL42   CYS44   THR45   SER46   ASP48   MET49   LEU50   PRO52  
 TYR54   TYR118  ASN119  ILE136  GLY138  SER139  PHE140  LEU141  ASN142  GLY143 
 SER144  CYS145  GLY146  SER147  TYR161  HIS163  HIS164  MET165  GLU166  LEU167 
 PRO168  THR169  GLY170  VAL171  HIS172  ALA173  PHE181  PHE185  VAL186  ASP187 
 ARG188  GLN189  THR190  ALA191  GLN192  ALA193 

> <Gold.Protein.RotatedAtoms>
  -13.9866   17.5097   76.2580 H   0  0  0  0  0  0  0  0  0  0  0  0  # atno 3372 bound_to 414 
   -3.2991   22.1926   74.5296 H   0  0  0  0  0  0  0  0  0  0  0  0  # atno 3515 bound_to 339 
   -1.7952   17.7058   72.9699 H   0  0  0  0  0  0  0  0  0  0  0  0  # atno 3523 bound_to 346 
   -7.5308   26.7635   63.5398 H   0  0  0  0  0  0  0  0  0  0  0  0  # atno 3576 bound_to 185 
   -8.4331   28.6180   65.3770 H   0  0  0  0  0  0  0  0  0  0  0  0  # atno 3663 bound_to 154 
   -3.2865   23.6993   71.7566 H   0  0  0  0  0  0  0  0  0  0  0  0  # atno 3793 bound_to 171 
   -7.6867   22.9725   72.3620 H   0  0  0  0  0  0  0  0  0  0  0  0  # atno 3800 bound_to 178 
  -14.9756    8.5885   76.9065 H   0  0  0  0  0  0  0  0  0  0  0  0  # atno 3973 bound_to 1471
  -19.8722   13.6679   63.2416 H   0  0  0  0  0  0  0  0  0  0  0  0  # atno 4183 bound_to 1244
  -12.4747   15.3710   61.3189 H   0  0  0  0  0  0  0  0  0  0  0  0  # atno 4268 bound_to 1114
  -15.5614   18.8055   59.2778 H   0  0  0  0  0  0  0  0  0  0  0  0  # atno 4280 bound_to 1130
  -11.4319   15.2238   58.0903 H   0  0  0  0  0  0  0  0  0  0  0  0  # atno 4409 bound_to 924 
  -15.4598    8.7329   78.4533 LP  0  0  0  0  0  0  0  0  0  0  0  0  # atno 4696 bound_to 1471
  -15.6015    7.3013   77.6806 LP  0  0  0  0  0  0  0  0  0  0  0  0  # atno 4697 bound_to 1471
  -14.6380   18.3123   75.0012 LP  0  0  0  0  0  0  0  0  0  0  0  0  # atno 4731 bound_to 414 
  -15.4764   17.1176   75.7337 LP  0  0  0  0  0  0  0  0  0  0  0  0  # atno 4732 bound_to 414 
  -14.0495   15.5240   60.9388 LP  0  0  0  0  0  0  0  0  0  0  0  0  # atno 4733 bound_to 1114
  -13.3961   16.4519   62.1130 LP  0  0  0  0  0  0  0  0  0  0  0  0  # atno 4734 bound_to 1114
  -10.4441   14.9017   56.8379 LP  0  0  0  0  0  0  0  0  0  0  0  0  # atno 4763 bound_to 924 
  -11.9876   15.3608   56.5670 LP  0  0  0  0  0  0  0  0  0  0  0  0  # atno 4764 bound_to 924 
  -20.8659   12.3883   63.3936 LP  0  0  0  0  0  0  0  0  0  0  0  0  # atno 4771 bound_to 1244
  -20.6327   13.3990   64.6549 LP  0  0  0  0  0  0  0  0  0  0  0  0  # atno 4772 bound_to 1244
   -6.4396   23.9750   72.0652 LP  0  0  0  0  0  0  0  0  0  0  0  0  # atno 4775 bound_to 178 
   -6.4836   22.4955   71.3755 LP  0  0  0  0  0  0  0  0  0  0  0  0  # atno 4776 bound_to 178 
   -2.9005   24.9989   72.6565 LP  0  0  0  0  0  0  0  0  0  0  0  0  # atno 4779 bound_to 171 
   -1.7701   23.8690   72.3219 LP  0  0  0  0  0  0  0  0  0  0  0  0  # atno 4780 bound_to 171 
   -8.8224   25.8653   63.9558 LP  0  0  0  0  0  0  0  0  0  0  0  0  # atno 4783 bound_to 185 
   -7.6013   25.1980   63.1013 LP  0  0  0  0  0  0  0  0  0  0  0  0  # atno 4784 bound_to 185 
   -3.2899   18.3399   73.0779 LP  0  0  0  0  0  0  0  0  0  0  0  0  # atno 4785 bound_to 346 
   -3.0854   16.8105   72.5433 LP  0  0  0  0  0  0  0  0  0  0  0  0  # atno 4786 bound_to 346 
   -3.5159   20.5809   74.5884 LP  0  0  0  0  0  0  0  0  0  0  0  0  # atno 4787 bound_to 339 
   -2.6522   21.3345   75.7515 LP  0  0  0  0  0  0  0  0  0  0  0  0  # atno 4788 bound_to 339 
   -6.8074   28.6873   65.3893 LP  0  0  0  0  0  0  0  0  0  0  0  0  # atno 4797 bound_to 154 
   -7.6800   29.9967   64.9526 LP  0  0  0  0  0  0  0  0  0  0  0  0  # atno 4798 bound_to 154 

> <Gold.Score>
     Score     S(PLP)   S(hbond)     S(cho)   S(metal)  DE(clash)   DE(tors)     intcor
     58.05     -47.45       1.72       2.18       0.00       0.00       0.58       0.05

> <Gold.PLP.Fitness>
58.0547

> <Gold.PLP.PLP>
-47.4494

> <Gold.PLP.part.hbond>
-2.0000

> <Gold.PLP.part.metal>
0.0000

> <Gold.PLP.part.buried>
-6.2216

> <Gold.PLP.part.nonpolar>
-41.6319

> <Gold.PLP.part.repulsive>
0.4407

> <Gold.PLP.ligand.clash>
0.0000

> <Gold.PLP.ligand.torsion>
0.5790

> <Gold.PLP.Chemscore.Hbond>
1.7236

> <Gold.PLP.Chemscore.CHOScore>
2.1815

> <Gold.PLP.Chemscore.Metal>
0.0000

> <Gold.Chemscore.Hbonds>
donor molecule, donor type, donor heavy atom, donor atom, acceptor molecule, acceptor atom, score
      L1  H     3    19       P1  1464  0.93
      L1  H    12    28       P1  1464  0.80
      L1  C     8    25       P1  1262  0.74
      L1  C    10    26       P1  1289  0.66
      L1  C    10    26       P1  1081  0.78

> <Gold.PLP.Chemscore.Internal.Correction>
0.0480

