#       Name:                unknown
#       Creating user name   williammccorkindale
#       Creation time:       Tue Jun  7 14:55:37 2022


#       File generated by GOLD software.
#

@<TRIPOS>MOLECULE
unknown|prepared_Mpro-x0161|mol2|1|dock4
    26    26     1
SMALL
NO_CHARGES


@<TRIPOS>ATOM
      1 C1         -12.4860  15.9628  74.2441 C.3            1 RES1               0.0000
      2 O2         -12.0263  16.0084  72.9185 O.3            1 RES1               0.0000
      3 C3         -12.4180  15.0233  72.0323 C.2            1 RES1               0.0000
      4 O4         -13.1901  14.1327  72.4605 O.2            1 RES1               0.0000
      5 C5         -11.9420  15.0268  70.6401 C.ar           1 RES1               0.0000
      6 C6         -12.3207  14.0538  69.7465 C.ar           1 RES1               0.0000
      7 C7         -11.8694  14.0551  68.4219 C.ar           1 RES1               0.0000
      8 C8         -11.0222  15.0534  67.9904 C.ar           1 RES1               0.0000
      9 C9         -10.6630  16.0128  68.9132 C.ar           1 RES1               0.0000
     10 C10        -11.0980  16.0217  70.2106 C.ar           1 RES1               0.0000
     11 S11        -10.4395  15.0871  66.3462 S.o2           1 RES1               0.0000
     12 O12        -11.6234  14.8830  65.4468 O.2            1 RES1               0.0000
     13 O13         -9.7749  16.4208  66.0750 O.2            1 RES1               0.0000
     14 N14         -9.2688  13.8704  66.0375 N.3            1 RES1               0.0000
     15 H15        -11.9410  16.6600  74.9121 H              1 RES1               0.0000
     16 H16        -12.4607  14.9580  74.6931 H              1 RES1               0.0000
     17 H17        -13.5685  16.2594  74.2158 H              1 RES1               0.0000
     18 H18        -12.9853  13.2677  70.0792 H              1 RES1               0.0000
     19 H19        -12.1559  13.3028  67.7127 H              1 RES1               0.0000
     20 H20         -9.9981  16.8039  68.5899 H              1 RES1               0.0000
     21 H21        -10.8080  16.7858  70.9339 H              1 RES1               0.0000
     22 H22         -9.7408  12.9570  65.8747 H              1 RES1               0.0000
     23 H23         -8.6505  14.0805  65.2382 H              1 RES1               0.0000
     24 ****       -13.4988  14.1535  73.4114 LP             1 RES1               0.0000
     25 ****       -13.4971  13.4018  71.8510 LP             1 RES1               0.0000
     26 ****        -8.6879  13.8326  66.8506 LP             1 RES1               0.0000
@<TRIPOS>BOND
    1    1    2 1     
    2    2    3 1     
    3    3    4 2     
    4    3    5 1     
    5    5    6 ar    
    6    6    7 ar    
    7    7    8 ar    
    8    8    9 ar    
    9    9   10 ar    
   10    8   11 1     
   11   11   12 2     
   12   11   13 2     
   13   11   14 1     
   14    5   10 ar    
   15    1   15 1     
   16    1   16 1     
   17    1   17 1     
   18    6   18 1     
   19    7   19 1     
   20    9   20 1     
   21   10   21 1     
   22   14   22 1     
   23   14   23 1     
   24    4   24 1     
   25    4   25 1     
   26   14   26 1     
@<TRIPOS>SUBSTRUCTURE
      1 RES1           1
@<TRIPOS>SET
LONE_PAIRS      STATIC     ATOMS    <user>   **** ""
5 24 25 12 13 26
DONOR_HYDROGENS      STATIC     ATOMS    <user>   **** ""
2 22 23
ATOM$BLUE        STATIC     ATOMS    COLORGROUP SYSTEM
5 24 25 12 13 26
ATOM$RED        STATIC     ATOMS    COLORGROUP SYSTEM
2 22 23
@<TRIPOS>COMMENT
> <Gold.Version>
2022.1.0

> <Gold.Id.Protein>
6LU7|6LU7_protein|mol2

> <Gold.Protein.RotatedTorsions>
[ 3973 1471 1470 1467 ] final  120.04 input   60.00 | X-H torsion
[ 3372  414  413  411 ] final  131.24 input   60.00 | X-H torsion
[ 4268 1114 1113 1110 ] final  153.34 input   59.99 | X-H torsion
[ 4409  924  923  921 ] final   34.44 input   59.99 | X-H torsion
[ 4183 1244 1243 1241 ] final   42.64 input   59.99 | X-H torsion
[ 3800  178  177  174 ] final  -92.84 input   60.00 | X-H torsion
[ 3793  171  170  167 ] final  -99.13 input   60.00 | X-H torsion
[ 3576  185  184  181 ] final  145.38 input   60.00 | X-H torsion
[ 3523  346  345  342 ] final   34.44 input   60.01 | X-H torsion
[ 3515  339  338  335 ] final  -51.34 input   60.00 | X-H torsion
[ 3663  154  153  150 ] final   98.64 input   60.00 | X-H torsion
[ 4280 1130 1129 1126 ] final   86.05 input   60.00 | X-H torsion

> <Gold.Protein.ActiveResidues>
 VAL20   THR21   CYS22   GLY23   THR24   THR25   THR26   LEU27   ASN28   PRO39  
 ARG40   HIS41   VAL42   CYS44   THR45   SER46   ASP48   MET49   LEU50   PRO52  
 TYR54   TYR118  ASN119  ILE136  GLY138  SER139  PHE140  LEU141  ASN142  GLY143 
 SER144  CYS145  GLY146  SER147  TYR161  HIS163  HIS164  MET165  GLU166  LEU167 
 PRO168  THR169  GLY170  VAL171  HIS172  ALA173  PHE181  PHE185  VAL186  ASP187 
 ARG188  GLN189  THR190  ALA191  GLN192  ALA193 

> <Gold.Protein.RotatedAtoms>
  -14.4082   17.1316   76.3919 H   0  0  0  0  0  0  0  0  0  0  0  0  # atno 3372 bound_to 414 
   -3.2813   20.4443   74.9939 H   0  0  0  0  0  0  0  0  0  0  0  0  # atno 3515 bound_to 339 
   -3.2505   18.3575   73.0898 H   0  0  0  0  0  0  0  0  0  0  0  0  # atno 3523 bound_to 346 
   -7.3473   26.6173   63.3975 H   0  0  0  0  0  0  0  0  0  0  0  0  # atno 3576 bound_to 185 
   -8.0202   29.9135   64.9738 H   0  0  0  0  0  0  0  0  0  0  0  0  # atno 3663 bound_to 154 
   -2.2277   24.8400   72.7629 H   0  0  0  0  0  0  0  0  0  0  0  0  # atno 3793 bound_to 171 
   -6.9605   22.2886   71.5728 H   0  0  0  0  0  0  0  0  0  0  0  0  # atno 3800 bound_to 178 
  -15.6967    7.4442   78.0889 H   0  0  0  0  0  0  0  0  0  0  0  0  # atno 3973 bound_to 1471
  -21.0213   12.4086   63.8105 H   0  0  0  0  0  0  0  0  0  0  0  0  # atno 4183 bound_to 1244
  -13.7967   15.3166   60.8097 H   0  0  0  0  0  0  0  0  0  0  0  0  # atno 4268 bound_to 1114
  -15.5389   19.3627   59.6209 H   0  0  0  0  0  0  0  0  0  0  0  0  # atno 4280 bound_to 1130
  -11.2103   15.1234   56.2352 H   0  0  0  0  0  0  0  0  0  0  0  0  # atno 4409 bound_to 924 
  -15.0537    8.1705   76.7823 LP  0  0  0  0  0  0  0  0  0  0  0  0  # atno 4696 bound_to 1471
  -15.2814    9.0160   78.1608 LP  0  0  0  0  0  0  0  0  0  0  0  0  # atno 4697 bound_to 1471
  -14.1396   18.3164   75.3091 LP  0  0  0  0  0  0  0  0  0  0  0  0  # atno 4731 bound_to 414 
  -15.5504   17.4942   75.2910 LP  0  0  0  0  0  0  0  0  0  0  0  0  # atno 4732 bound_to 414 
  -13.7250   16.4384   61.9863 LP  0  0  0  0  0  0  0  0  0  0  0  0  # atno 4733 bound_to 1114
  -12.3892   15.5924   61.5783 LP  0  0  0  0  0  0  0  0  0  0  0  0  # atno 4734 bound_to 1114
  -12.1065   15.4146   57.5619 LP  0  0  0  0  0  0  0  0  0  0  0  0  # atno 4763 bound_to 924 
  -10.5485   14.9490   57.7115 LP  0  0  0  0  0  0  0  0  0  0  0  0  # atno 4764 bound_to 924 
  -20.3469   13.7121   64.5134 LP  0  0  0  0  0  0  0  0  0  0  0  0  # atno 4771 bound_to 1244
  -19.9944   13.3433   62.9622 LP  0  0  0  0  0  0  0  0  0  0  0  0  # atno 4772 bound_to 1244
   -7.5333   23.4843   72.5164 LP  0  0  0  0  0  0  0  0  0  0  0  0  # atno 4775 bound_to 178 
   -6.1211   23.6750   71.7190 LP  0  0  0  0  0  0  0  0  0  0  0  0  # atno 4776 bound_to 178 
   -2.1710   23.4369   71.9408 LP  0  0  0  0  0  0  0  0  0  0  0  0  # atno 4779 bound_to 171 
   -3.5659   24.2820   72.0241 LP  0  0  0  0  0  0  0  0  0  0  0  0  # atno 4780 bound_to 171 
   -8.7743   26.1318   64.0107 LP  0  0  0  0  0  0  0  0  0  0  0  0  # atno 4783 bound_to 185 
   -7.8343   25.0787   63.1897 LP  0  0  0  0  0  0  0  0  0  0  0  0  # atno 4784 bound_to 185 
   -3.1257   16.8286   72.5467 LP  0  0  0  0  0  0  0  0  0  0  0  0  # atno 4785 bound_to 346 
   -1.7839   17.6655   72.9538 LP  0  0  0  0  0  0  0  0  0  0  0  0  # atno 4786 bound_to 346 
   -2.6571   21.8077   75.6258 LP  0  0  0  0  0  0  0  0  0  0  0  0  # atno 4787 bound_to 339 
   -3.5290   21.8684   74.2465 LP  0  0  0  0  0  0  0  0  0  0  0  0  # atno 4788 bound_to 339 
   -8.1984   28.3704   65.4588 LP  0  0  0  0  0  0  0  0  0  0  0  0  # atno 4797 bound_to 154 
   -6.7049   29.0088   65.2893 LP  0  0  0  0  0  0  0  0  0  0  0  0  # atno 4798 bound_to 154 

> <Gold.Score>
     Score     S(PLP)   S(hbond)     S(cho)   S(metal)  DE(clash)   DE(tors)     intcor
     35.00     -32.06       0.99       0.00       0.00       0.00       1.13       2.23

> <Gold.PLP.Fitness>
35.0022

> <Gold.PLP.PLP>
-32.0555

> <Gold.PLP.part.hbond>
-1.0000

> <Gold.PLP.part.metal>
0.0000

> <Gold.PLP.part.buried>
-7.0027

> <Gold.PLP.part.nonpolar>
-25.2706

> <Gold.PLP.part.repulsive>
0.3071

> <Gold.PLP.ligand.clash>
0.0000

> <Gold.PLP.ligand.torsion>
1.1272

> <Gold.PLP.Chemscore.Hbond>
0.9920

> <Gold.PLP.Chemscore.CHOScore>
0.0000

> <Gold.PLP.Chemscore.Metal>
0.0000

> <Gold.Chemscore.Hbonds>
donor molecule, donor type, donor heavy atom, donor atom, acceptor molecule, acceptor atom, score
      L1  H    14    23       P1  1103  0.99

> <Gold.PLP.Chemscore.Internal.Correction>
2.2252

