#       Name:                unknown
#       Creating user name   williammccorkindale
#       Creation time:       Tue Jun  7 14:55:43 2022


#       File generated by GOLD software.
#

@<TRIPOS>MOLECULE
unknown|prepared_Mpro-x0540|mol2|1|dock5
    42    43     1
SMALL
NO_CHARGES


@<TRIPOS>ATOM
      1 O1         -11.6494  14.4293  68.3564 O.2            1 RES1               0.0000
      2 C2         -10.9807  13.9521  69.2942 C.2            1 RES1               0.0000
      3 N3         -10.0524  12.9181  68.9819 N.am           1 RES1               0.0000
      4 C4          -9.8955  12.4475  67.6445 C.3            1 RES1               0.0000
      5 C5         -10.9908  11.5358  67.1745 C.3            1 RES1               0.0000
      6 C6         -11.4639  12.0725  65.8499 C.ar           1 RES1               0.0000
      7 C7         -11.4949  11.2429  64.7330 C.ar           1 RES1               0.0000
      8 C8         -11.9224  11.7005  63.5039 C.ar           1 RES1               0.0000
      9 N9         -12.3076  12.9886  63.4399 N.ar           1 RES1               0.0000
     10 C10        -12.3011  13.8269  64.4657 C.ar           1 RES1               0.0000
     11 C11        -11.8750  13.3773  65.6985 C.ar           1 RES1               0.0000
     12 N12        -11.1869  14.4644  70.5911 N.am           1 RES1               0.0000
     13 C13        -12.1560  15.5321  70.8653 C.3            1 RES1               0.0000
     14 C14        -13.4662  14.8769  71.2019 C.3            1 RES1               0.0000
     15 C15        -13.3699  13.9823  72.4104 C.3            1 RES1               0.0000
     16 C16        -12.5620  14.5586  73.5239 C.3            1 RES1               0.0000
     17 C17        -12.4240  16.0418  73.3094 C.3            1 RES1               0.0000
     18 C18        -11.7310  16.3827  72.0200 C.3            1 RES1               0.0000
     19 H19         -9.5053  12.5360  69.7858 H              1 RES1               0.0000
     20 H20         -8.9455  11.8765  67.5895 H              1 RES1               0.0000
     21 H21         -9.7853  13.2785  66.9005 H              1 RES1               0.0000
     22 H22        -10.6005  10.5076  67.0509 H              1 RES1               0.0000
     23 H23        -11.8892  11.5571  67.8262 H              1 RES1               0.0000
     24 H24        -11.1763  10.2039  64.8173 H              1 RES1               0.0000
     25 H25        -11.9396  11.0343  62.6389 H              1 RES1               0.0000
     26 H26        -12.6158  14.8688  64.4009 H              1 RES1               0.0000
     27 H27        -11.8493  14.0250  66.5767 H              1 RES1               0.0000
     28 H28        -10.6343  14.0720  71.3741 H              1 RES1               0.0000
     29 H29        -12.3117  16.1370  69.9514 H              1 RES1               0.0000
     30 H30        -13.8282  14.2631  70.3618 H              1 RES1               0.0000
     31 H31        -14.1968  15.6794  71.4550 H              1 RES1               0.0000
     32 H32        -13.0462  12.9476  72.1159 H              1 RES1               0.0000
     33 H33        -14.4253  13.8448  72.7795 H              1 RES1               0.0000
     34 H34        -13.0802  14.4224  74.5013 H              1 RES1               0.0000
     35 H35        -11.5684  14.0529  73.6527 H              1 RES1               0.0000
     36 H36        -13.4203  16.4858  73.3734 H              1 RES1               0.0000
     37 H37        -11.7863  16.4386  74.1352 H              1 RES1               0.0000
     38 H38        -10.6209  16.3813  72.1093 H              1 RES1               0.0000
     39 H39        -12.0043  17.4468  71.7617 H              1 RES1               0.0000
     40 ****       -11.5233  14.0844  67.4263 LP             1 RES1               0.0000
     41 ****       -12.3118  15.1569  68.5344 LP             1 RES1               0.0000
     42 ****       -12.6204  13.3372  62.5564 LP             1 RES1               0.0000
@<TRIPOS>BOND
    1    1    2 2     
    2    2    3 am    
    3    3    4 1     
    4    4    5 1     
    5    5    6 1     
    6    6    7 ar    
    7    7    8 ar    
    8    8    9 ar    
    9    9   10 ar    
   10   10   11 ar    
   11    2   12 am    
   12   12   13 1     
   13   13   14 1     
   14   14   15 1     
   15   15   16 1     
   16   16   17 1     
   17   17   18 1     
   18    6   11 ar    
   19   18   13 1     
   20    3   19 1     
   21    4   20 1     
   22    4   21 1     
   23    5   22 1     
   24    5   23 1     
   25    7   24 1     
   26    8   25 1     
   27   10   26 1     
   28   11   27 1     
   29   12   28 1     
   30   13   29 1     
   31   14   30 1     
   32   14   31 1     
   33   15   32 1     
   34   15   33 1     
   35   16   34 1     
   36   16   35 1     
   37   17   36 1     
   38   17   37 1     
   39   18   38 1     
   40   18   39 1     
   41    1   40 1     
   42    1   41 1     
   43    9   42 1     
@<TRIPOS>SUBSTRUCTURE
      1 RES1           1
@<TRIPOS>SET
LONE_PAIRS      STATIC     ATOMS    <user>   **** ""
3 40 41 42
DONOR_HYDROGENS      STATIC     ATOMS    <user>   **** ""
2 19 28
ATOM$BLUE        STATIC     ATOMS    COLORGROUP SYSTEM
3 40 41 42
ATOM$RED        STATIC     ATOMS    COLORGROUP SYSTEM
2 19 28
@<TRIPOS>COMMENT
> <Gold.Version>
2022.1.0

> <Gold.Id.Protein>
6LU7|6LU7_protein|mol2

> <Gold.Protein.RotatedTorsions>
[ 3973 1471 1470 1467 ] final   27.82 input   60.00 | X-H torsion
[ 3372  414  413  411 ] final   24.08 input   60.00 | X-H torsion
[ 4268 1114 1113 1110 ] final  -60.15 input   59.99 | X-H torsion
[ 4409  924  923  921 ] final  127.03 input   59.99 | X-H torsion
[ 4183 1244 1243 1241 ] final  127.31 input   59.99 | X-H torsion
[ 3800  178  177  174 ] final   62.76 input   60.00 | X-H torsion
[ 3793  171  170  167 ] final  170.42 input   60.00 | X-H torsion
[ 3576  185  184  181 ] final  -50.50 input   60.00 | X-H torsion
[ 3523  346  345  342 ] final   53.64 input   60.01 | X-H torsion
[ 3515  339  338  335 ] final   42.23 input   60.00 | X-H torsion
[ 3663  154  153  150 ] final -168.14 input   60.00 | X-H torsion
[ 4280 1130 1129 1126 ] final  108.52 input   60.00 | X-H torsion

> <Gold.Protein.ActiveResidues>
 VAL20   THR21   CYS22   GLY23   THR24   THR25   THR26   LEU27   ASN28   PRO39  
 ARG40   HIS41   VAL42   CYS44   THR45   SER46   ASP48   MET49   LEU50   PRO52  
 TYR54   TYR118  ASN119  ILE136  GLY138  SER139  PHE140  LEU141  ASN142  GLY143 
 SER144  CYS145  GLY146  SER147  TYR161  HIS163  HIS164  MET165  GLU166  LEU167 
 PRO168  THR169  GLY170  VAL171  HIS172  ALA173  PHE181  PHE185  VAL186  ASP187 
 ARG188  GLN189  THR190  ALA191  GLN192  ALA193 

> <Gold.Protein.RotatedAtoms>
  -14.0124   18.2497   75.4627 H   0  0  0  0  0  0  0  0  0  0  0  0  # atno 3372 bound_to 414 
   -3.6486   21.4639   74.1647 H   0  0  0  0  0  0  0  0  0  0  0  0  # atno 3515 bound_to 339 
   -2.9680   18.4742   73.1541 H   0  0  0  0  0  0  0  0  0  0  0  0  # atno 3523 bound_to 346 
   -8.4470   25.1307   63.5357 H   0  0  0  0  0  0  0  0  0  0  0  0  # atno 3576 bound_to 185 
   -6.7659   29.4195   65.1594 H   0  0  0  0  0  0  0  0  0  0  0  0  # atno 3663 bound_to 154 
   -1.8572   23.6991   72.1908 H   0  0  0  0  0  0  0  0  0  0  0  0  # atno 3793 bound_to 171 
   -6.4581   23.9756   72.0741 H   0  0  0  0  0  0  0  0  0  0  0  0  # atno 3800 bound_to 178 
  -15.1993    7.7533   76.8733 H   0  0  0  0  0  0  0  0  0  0  0  0  # atno 3973 bound_to 1471
  -20.3079   12.8741   62.8807 H   0  0  0  0  0  0  0  0  0  0  0  0  # atno 4183 bound_to 1244
  -12.4714   15.9033   61.8651 H   0  0  0  0  0  0  0  0  0  0  0  0  # atno 4268 bound_to 1114
  -15.5229   19.0286   59.4752 H   0  0  0  0  0  0  0  0  0  0  0  0  # atno 4280 bound_to 1130
  -10.3990   14.8988   57.2951 H   0  0  0  0  0  0  0  0  0  0  0  0  # atno 4409 bound_to 924 
  -15.1145    9.1196   77.7529 LP  0  0  0  0  0  0  0  0  0  0  0  0  # atno 4696 bound_to 1471
  -15.7215    7.7556   78.4144 LP  0  0  0  0  0  0  0  0  0  0  0  0  # atno 4697 bound_to 1471
  -15.4950   17.6507   75.1610 LP  0  0  0  0  0  0  0  0  0  0  0  0  # atno 4731 bound_to 414 
  -14.5935   17.0339   76.3749 LP  0  0  0  0  0  0  0  0  0  0  0  0  # atno 4732 bound_to 414 
  -13.4043   15.1430   60.7699 LP  0  0  0  0  0  0  0  0  0  0  0  0  # atno 4733 bound_to 1114
  -14.0447   16.2969   61.7318 LP  0  0  0  0  0  0  0  0  0  0  0  0  # atno 4734 bound_to 1114
  -11.6333   15.2493   56.2942 LP  0  0  0  0  0  0  0  0  0  0  0  0  # atno 4763 bound_to 924 
  -11.8387   15.3405   57.9117 LP  0  0  0  0  0  0  0  0  0  0  0  0  # atno 4764 bound_to 924 
  -21.0365   12.6634   64.3204 LP  0  0  0  0  0  0  0  0  0  0  0  0  # atno 4771 bound_to 1244
  -20.0232   13.9233   64.0915 LP  0  0  0  0  0  0  0  0  0  0  0  0  # atno 4772 bound_to 1244
   -6.4689   22.5075   71.3721 LP  0  0  0  0  0  0  0  0  0  0  0  0  # atno 4775 bound_to 178 
   -7.6916   22.9530   72.3585 LP  0  0  0  0  0  0  0  0  0  0  0  0  # atno 4776 bound_to 178 
   -3.4318   23.8692   71.8171 LP  0  0  0  0  0  0  0  0  0  0  0  0  # atno 4779 bound_to 171 
   -2.6783   24.9989   72.7241 LP  0  0  0  0  0  0  0  0  0  0  0  0  # atno 4780 bound_to 171 
   -7.1467   26.0082   63.1033 LP  0  0  0  0  0  0  0  0  0  0  0  0  # atno 4783 bound_to 185 
   -8.3543   26.6995   63.9579 LP  0  0  0  0  0  0  0  0  0  0  0  0  # atno 4784 bound_to 185 
   -3.3824   17.0051   72.5900 LP  0  0  0  0  0  0  0  0  0  0  0  0  # atno 4785 bound_to 346 
   -1.8117   17.3715   72.8458 LP  0  0  0  0  0  0  0  0  0  0  0  0  # atno 4786 bound_to 346 
   -3.0431   20.5195   75.3435 LP  0  0  0  0  0  0  0  0  0  0  0  0  # atno 4787 bound_to 339 
   -2.7731   22.1298   75.3639 LP  0  0  0  0  0  0  0  0  0  0  0  0  # atno 4788 bound_to 339 
   -8.3704   29.6647   65.0427 LP  0  0  0  0  0  0  0  0  0  0  0  0  # atno 4797 bound_to 154 
   -7.7960   28.2120   65.5183 LP  0  0  0  0  0  0  0  0  0  0  0  0  # atno 4798 bound_to 154 

> <Gold.Score>
     Score     S(PLP)   S(hbond)     S(cho)   S(metal)  DE(clash)   DE(tors)     intcor
     58.67     -49.69       1.69       1.87       0.00       0.00       0.87       0.04

> <Gold.PLP.Fitness>
58.6709

> <Gold.PLP.PLP>
-49.6921

> <Gold.PLP.part.hbond>
-2.0000

> <Gold.PLP.part.metal>
0.0000

> <Gold.PLP.part.buried>
-8.2704

> <Gold.PLP.part.nonpolar>
-41.1520

> <Gold.PLP.part.repulsive>
0.3752

> <Gold.PLP.ligand.clash>
0.0000

> <Gold.PLP.ligand.torsion>
0.8711

> <Gold.PLP.Chemscore.Hbond>
1.6893

> <Gold.PLP.Chemscore.CHOScore>
1.8725

> <Gold.PLP.Chemscore.Metal>
0.0000

> <Gold.Chemscore.Hbonds>
donor molecule, donor type, donor heavy atom, donor atom, acceptor molecule, acceptor atom, score
      L1  H     3    19       P1  1464  0.93
      L1  H    12    28       P1  1464  0.76
      L1  C     8    25       P1  1289  0.88
      L1  C     8    25       P1  1081  0.99

> <Gold.PLP.Chemscore.Internal.Correction>
0.0357

