#       Name:                unknown
#       Creating user name   williammccorkindale
#       Creation time:       Tue Jun  7 14:55:43 2022


#       File generated by GOLD software.
#

@<TRIPOS>MOLECULE
unknown|prepared_Mpro-x0397|mol2|1|dock5
    35    36     1
SMALL
NO_CHARGES


@<TRIPOS>ATOM
      1 C1         -12.7193  12.3156  70.5932 C.3            1 RES1               0.0000
      2 N2         -12.4173  13.2330  69.5146 N.am           1 RES1               0.0000
      3 C3         -12.5718  14.6487  69.7296 C.3            1 RES1               0.0000
      4 C4         -12.8814  14.9601  71.1522 C.2            1 RES1               0.0000
      5 C5         -12.0239  15.1945  72.2070 C.2            1 RES1               0.0000
      6 C6         -12.8059  15.4412  73.3416 C.2            1 RES1               0.0000
      7 C7         -12.2997  15.7425  74.7065 C.3            1 RES1               0.0000
      8 O8         -14.0538  15.3490  72.9404 O.3            1 RES1               0.0000
      9 N9         -14.1167  15.0705  71.6729 N.2            1 RES1               0.0000
     10 C10        -11.9784  12.6787  68.2831 C.2            1 RES1               0.0000
     11 O11        -12.0214  11.4451  68.0548 O.2            1 RES1               0.0000
     12 N12        -11.4602  13.4874  67.2256 N.am           1 RES1               0.0000
     13 C13        -11.0082  12.9599  65.9687 C.3            1 RES1               0.0000
     14 C14        -12.1217  12.3025  65.1404 C.3            1 RES1               0.0000
     15 C15        -11.5227  13.6245  64.6913 C.3            1 RES1               0.0000
     16 H16        -12.1919  11.3313  70.4590 H              1 RES1               0.0000
     17 H17        -13.8110  12.0472  70.5465 H              1 RES1               0.0000
     18 H18        -12.4397  12.6891  71.5790 H              1 RES1               0.0000
     19 H19        -11.6643  15.1763  69.3731 H              1 RES1               0.0000
     20 H20        -13.4012  15.0134  69.0609 H              1 RES1               0.0000
     21 H21        -10.9486  15.1842  72.1443 H              1 RES1               0.0000
     22 H22        -12.9893  16.3670  75.2860 H              1 RES1               0.0000
     23 H23        -11.3199  16.2844  74.6573 H              1 RES1               0.0000
     24 H24        -12.0850  14.7859  75.2515 H              1 RES1               0.0000
     25 H25        -11.4060  14.5139  67.3708 H              1 RES1               0.0000
     26 H26         -9.9987  12.4909  65.9178 H              1 RES1               0.0000
     27 H27        -13.1468  12.3075  65.5499 H              1 RES1               0.0000
     28 H28        -11.8515  11.3986  64.5580 H              1 RES1               0.0000
     29 H29        -10.8937  13.5700  63.7873 H              1 RES1               0.0000
     30 H30        -12.1421  14.5080  64.8687 H              1 RES1               0.0000
     31 ****       -14.5159  16.2201  73.1070 LP             1 RES1               0.0000
     32 ****       -14.5107  14.6251  73.4573 LP             1 RES1               0.0000
     33 ****       -14.9651  14.9544  71.1564 LP             1 RES1               0.0000
     34 ****       -12.3730  10.8197  68.7515 LP             1 RES1               0.0000
     35 ****       -11.7042  11.0878  67.1764 LP             1 RES1               0.0000
@<TRIPOS>BOND
    1    1    2 1     
    2    2    3 1     
    3    3    4 1     
    4    4    5 1     
    5    5    6 2     
    6    6    7 1     
    7    6    8 1     
    8    8    9 1     
    9    2   10 am    
   10   10   11 2     
   11   10   12 am    
   12   12   13 1     
   13   13   14 1     
   14   14   15 1     
   15    4    9 2     
   16   15   13 1     
   17    1   16 1     
   18    1   17 1     
   19    1   18 1     
   20    3   19 1     
   21    3   20 1     
   22    5   21 1     
   23    7   22 1     
   24    7   23 1     
   25    7   24 1     
   26   12   25 1     
   27   13   26 1     
   28   14   27 1     
   29   14   28 1     
   30   15   29 1     
   31   15   30 1     
   32    8   31 1     
   33    8   32 1     
   34    9   33 1     
   35   11   34 1     
   36   11   35 1     
@<TRIPOS>SUBSTRUCTURE
      1 RES1           1
@<TRIPOS>SET
LONE_PAIRS      STATIC     ATOMS    <user>   **** ""
5 31 32 33 34 35
DONOR_HYDROGENS      STATIC     ATOMS    <user>   **** ""
1 25
ATOM$BLUE        STATIC     ATOMS    COLORGROUP SYSTEM
5 31 32 33 34 35
ATOM$RED        STATIC     ATOMS    COLORGROUP SYSTEM
1 25
@<TRIPOS>COMMENT
> <Gold.Version>
2022.1.0

> <Gold.Id.Protein>
6LU7|6LU7_protein|mol2

> <Gold.Protein.RotatedTorsions>
[ 3973 1471 1470 1467 ] final  -15.30 input   60.00 | X-H torsion
[ 3372  414  413  411 ] final   46.44 input   60.00 | X-H torsion
[ 4268 1114 1113 1110 ] final  -33.85 input   59.99 | X-H torsion
[ 4409  924  923  921 ] final -159.51 input   59.99 | X-H torsion
[ 4183 1244 1243 1241 ] final  171.81 input   59.99 | X-H torsion
[ 3800  178  177  174 ] final -110.89 input   60.00 | X-H torsion
[ 3793  171  170  167 ] final  136.17 input   60.00 | X-H torsion
[ 3576  185  184  181 ] final  135.93 input   60.00 | X-H torsion
[ 3523  346  345  342 ] final  -28.02 input   60.01 | X-H torsion
[ 3515  339  338  335 ] final   84.29 input   60.00 | X-H torsion
[ 3663  154  153  150 ] final  -50.76 input   60.00 | X-H torsion
[ 4280 1130 1129 1126 ] final  -48.99 input   60.00 | X-H torsion

> <Gold.Protein.ActiveResidues>
 VAL20   THR21   CYS22   GLY23   THR24   THR25   THR26   LEU27   ASN28   PRO39  
 ARG40   HIS41   VAL42   CYS44   THR45   SER46   ASP48   MET49   LEU50   PRO52  
 TYR54   TYR118  ASN119  ILE136  GLY138  SER139  PHE140  LEU141  ASN142  GLY143 
 SER144  CYS145  GLY146  SER147  TYR161  HIS163  HIS164  MET165  GLU166  LEU167 
 PRO168  THR169  GLY170  VAL171  HIS172  ALA173  PHE181  PHE185  VAL186  ASP187 
 ARG188  GLN189  THR190  ALA191  GLN192  ALA193 

> <Gold.Protein.RotatedAtoms>
  -13.8674   18.0700   75.7427 H   0  0  0  0  0  0  0  0  0  0  0  0  # atno 3372 bound_to 414 
   -3.4183   22.0586   74.3765 H   0  0  0  0  0  0  0  0  0  0  0  0  # atno 3515 bound_to 339 
   -3.6481   17.5346   72.7622 H   0  0  0  0  0  0  0  0  0  0  0  0  # atno 3523 bound_to 346 
   -7.4444   26.7074   63.4767 H   0  0  0  0  0  0  0  0  0  0  0  0  # atno 3576 bound_to 185 
   -7.7526   28.2134   65.5212 H   0  0  0  0  0  0  0  0  0  0  0  0  # atno 3663 bound_to 154 
   -2.2385   23.4195   71.9071 H   0  0  0  0  0  0  0  0  0  0  0  0  # atno 3793 bound_to 171 
   -7.2070   22.2970   71.7322 H   0  0  0  0  0  0  0  0  0  0  0  0  # atno 3800 bound_to 178 
  -15.0003    8.4106   76.8316 H   0  0  0  0  0  0  0  0  0  0  0  0  # atno 3973 bound_to 1471
  -19.9434   13.4606   63.0414 H   0  0  0  0  0  0  0  0  0  0  0  0  # atno 4183 bound_to 1244
  -12.7202   16.1839   62.0670 H   0  0  0  0  0  0  0  0  0  0  0  0  # atno 4268 bound_to 1114
  -16.3768   20.2313   58.3814 H   0  0  0  0  0  0  0  0  0  0  0  0  # atno 4280 bound_to 1130
  -11.1476   15.1384   58.0925 H   0  0  0  0  0  0  0  0  0  0  0  0  # atno 4409 bound_to 924 
  -15.3826    8.8756   78.3434 LP  0  0  0  0  0  0  0  0  0  0  0  0  # atno 4696 bound_to 1471
  -15.6538    7.3377   77.8659 LP  0  0  0  0  0  0  0  0  0  0  0  0  # atno 4697 bound_to 1471
  -15.3062   17.9179   74.9979 LP  0  0  0  0  0  0  0  0  0  0  0  0  # atno 4731 bound_to 414 
  -14.9283   16.9478   76.2559 LP  0  0  0  0  0  0  0  0  0  0  0  0  # atno 4732 bound_to 414 
  -12.9903   15.1081   60.8763 LP  0  0  0  0  0  0  0  0  0  0  0  0  # atno 4733 bound_to 1114
  -14.2081   16.0492   61.4221 LP  0  0  0  0  0  0  0  0  0  0  0  0  # atno 4734 bound_to 1114
  -10.5867   14.9399   56.5780 LP  0  0  0  0  0  0  0  0  0  0  0  0  # atno 4763 bound_to 924 
  -12.1313   15.4087   56.8248 LP  0  0  0  0  0  0  0  0  0  0  0  0  # atno 4764 bound_to 924 
  -20.9838   12.3777   63.6682 LP  0  0  0  0  0  0  0  0  0  0  0  0  # atno 4771 bound_to 1244
  -20.4430   13.6183   64.5820 LP  0  0  0  0  0  0  0  0  0  0  0  0  # atno 4772 bound_to 1244
   -7.3507   23.7169   72.5141 LP  0  0  0  0  0  0  0  0  0  0  0  0  # atno 4775 bound_to 178 
   -6.0555   23.4340   71.5608 LP  0  0  0  0  0  0  0  0  0  0  0  0  # atno 4776 bound_to 178 
   -3.5654   24.3483   72.0640 LP  0  0  0  0  0  0  0  0  0  0  0  0  # atno 4779 bound_to 171 
   -2.1607   24.8014   72.7628 LP  0  0  0  0  0  0  0  0  0  0  0  0  # atno 4780 bound_to 171 
   -8.8100   25.9829   63.9847 LP  0  0  0  0  0  0  0  0  0  0  0  0  # atno 4783 bound_to 185 
   -7.7007   25.1370   63.1359 LP  0  0  0  0  0  0  0  0  0  0  0  0  # atno 4784 bound_to 185 
   -2.1556   16.8964   72.6476 LP  0  0  0  0  0  0  0  0  0  0  0  0  # atno 4785 bound_to 346 
   -2.3536   18.4264   73.1829 LP  0  0  0  0  0  0  0  0  0  0  0  0  # atno 4786 bound_to 346 
   -3.4113   20.4814   74.7769 LP  0  0  0  0  0  0  0  0  0  0  0  0  # atno 4787 bound_to 339 
   -2.6368   21.5689   75.7172 LP  0  0  0  0  0  0  0  0  0  0  0  0  # atno 4788 bound_to 339 
   -6.7758   29.4591   65.1443 LP  0  0  0  0  0  0  0  0  0  0  0  0  # atno 4797 bound_to 154 
   -8.3969   29.6323   65.0525 LP  0  0  0  0  0  0  0  0  0  0  0  0  # atno 4798 bound_to 154 

> <Gold.Score>
     Score     S(PLP)   S(hbond)     S(cho)   S(metal)  DE(clash)   DE(tors)     intcor
     38.58     -38.19       0.98       0.00       0.00       1.52       0.53       0.05

> <Gold.PLP.Fitness>
38.5772

> <Gold.PLP.PLP>
-38.1868

> <Gold.PLP.part.hbond>
-1.0000

> <Gold.PLP.part.metal>
0.0000

> <Gold.PLP.part.buried>
-5.4967

> <Gold.PLP.part.nonpolar>
-32.8166

> <Gold.PLP.part.repulsive>
0.3405

> <Gold.PLP.ligand.clash>
1.5238

> <Gold.PLP.ligand.torsion>
0.5286

> <Gold.PLP.Chemscore.Hbond>
0.9750

> <Gold.PLP.Chemscore.CHOScore>
0.0000

> <Gold.PLP.Chemscore.Metal>
0.0000

> <Gold.Chemscore.Hbonds>
donor molecule, donor type, donor heavy atom, donor atom, acceptor molecule, acceptor atom, score
      P1  H  1281  4132       L1    11  0.98

> <Gold.PLP.Chemscore.Internal.Correction>
0.0464

