#       Name:                unknown
#       Creating user name   williammccorkindale
#       Creation time:       Tue Jun  7 14:55:36 2022


#       File generated by GOLD software.
#

@<TRIPOS>MOLECULE
unknown|prepared_Mpro-x0072|mol2|1|dock1
    27    27     1
SMALL
NO_CHARGES


@<TRIPOS>ATOM
      1 C1         -12.5289  10.9614  70.5080 C.3            1 RES1               0.0000
      2 S2         -11.3615  11.1291  69.1591 S.o2           1 RES1               0.0000
      3 O3         -10.5861   9.8596  69.0003 O.2            1 RES1               0.0000
      4 O4         -12.1779  11.3295  67.9117 O.2            1 RES1               0.0000
      5 N5         -10.2935  12.4414  69.3980 N.3            1 RES1               0.0000
      6 C6         -10.9066  13.7116  69.0471 C.3            1 RES1               0.0000
      7 C7         -12.3100  13.8177  69.5514 C.3            1 RES1               0.0000
      8 C8         -12.3952  14.4242  70.8988 C.ar           1 RES1               0.0000
      9 C9         -11.7433  15.6202  71.1789 C.ar           1 RES1               0.0000
     10 C10        -11.8148  16.1955  72.4301 C.ar           1 RES1               0.0000
     11 C11        -12.5396  15.5992  73.4501 C.ar           1 RES1               0.0000
     12 C12        -13.1971  14.4015  73.1834 C.ar           1 RES1               0.0000
     13 C13        -13.1173  13.8306  71.9159 C.ar           1 RES1               0.0000
     14 H14        -12.7250   9.8920  70.7259 H              1 RES1               0.0000
     15 H15        -12.0337  11.3751  71.4086 H              1 RES1               0.0000
     16 H16        -13.4565  11.5152  70.3249 H              1 RES1               0.0000
     17 H17         -9.9368  12.4399  70.3715 H              1 RES1               0.0000
     18 H18        -10.3212  14.5360  69.4846 H              1 RES1               0.0000
     19 H19        -10.9286  13.8318  67.9343 H              1 RES1               0.0000
     20 H20        -12.7486  12.8015  69.5526 H              1 RES1               0.0000
     21 H21        -12.9006  14.4697  68.8550 H              1 RES1               0.0000
     22 H22        -11.1644  16.1262  70.4181 H              1 RES1               0.0000
     23 H23        -11.2896  17.1262  72.5958 H              1 RES1               0.0000
     24 H24        -12.5936  16.0485  74.4219 H              1 RES1               0.0000
     25 H25        -13.7661  13.9084  73.9388 H              1 RES1               0.0000
     26 H26        -13.6446  12.8874  71.7337 H              1 RES1               0.0000
     27 ****        -9.5154  12.3257  68.7806 LP             1 RES1               0.0000
@<TRIPOS>BOND
    1    1    2 1     
    2    2    3 2     
    3    2    4 2     
    4    2    5 1     
    5    5    6 1     
    6    6    7 1     
    7    7    8 1     
    8    8    9 ar    
    9    9   10 ar    
   10   10   11 ar    
   11   11   12 ar    
   12   12   13 ar    
   13    8   13 ar    
   14    1   14 1     
   15    1   15 1     
   16    1   16 1     
   17    5   17 1     
   18    6   18 1     
   19    6   19 1     
   20    7   20 1     
   21    7   21 1     
   22    9   22 1     
   23   10   23 1     
   24   11   24 1     
   25   12   25 1     
   26   13   26 1     
   27    5   27 1     
@<TRIPOS>SUBSTRUCTURE
      1 RES1           1
@<TRIPOS>SET
LONE_PAIRS      STATIC     ATOMS    <user>   **** ""
3 3 4 27
DONOR_HYDROGENS      STATIC     ATOMS    <user>   **** ""
1 17
ATOM$BLUE        STATIC     ATOMS    COLORGROUP SYSTEM
3 3 4 27
ATOM$RED        STATIC     ATOMS    COLORGROUP SYSTEM
1 17
@<TRIPOS>COMMENT
> <Gold.Version>
2022.1.0

> <Gold.Id.Protein>
6LU7|6LU7_protein|mol2

> <Gold.Protein.RotatedTorsions>
[ 3973 1471 1470 1467 ] final  110.10 input   60.00 | X-H torsion
[ 3372  414  413  411 ] final -151.94 input   60.00 | X-H torsion
[ 4268 1114 1113 1110 ] final   44.96 input   59.99 | X-H torsion
[ 4409  924  923  921 ] final  100.56 input   59.99 | X-H torsion
[ 4183 1244 1243 1241 ] final   86.66 input   59.99 | X-H torsion
[ 3800  178  177  174 ] final   29.24 input   60.00 | X-H torsion
[ 3793  171  170  167 ] final   48.99 input   60.00 | X-H torsion
[ 3576  185  184  181 ] final -107.79 input   60.00 | X-H torsion
[ 3523  346  345  342 ] final -106.65 input   60.01 | X-H torsion
[ 3515  339  338  335 ] final  -72.18 input   60.00 | X-H torsion
[ 3663  154  153  150 ] final  -27.66 input   60.00 | X-H torsion
[ 4280 1130 1129 1126 ] final    6.09 input   60.00 | X-H torsion

> <Gold.Protein.ActiveResidues>
 VAL20   THR21   CYS22   GLY23   THR24   THR25   THR26   LEU27   ASN28   PRO39  
 ARG40   HIS41   VAL42   CYS44   THR45   SER46   ASP48   MET49   LEU50   PRO52  
 TYR54   TYR118  ASN119  ILE136  GLY138  SER139  PHE140  LEU141  ASN142  GLY143 
 SER144  CYS145  GLY146  SER147  TYR161  HIS163  HIS164  MET165  GLU166  LEU167 
 PRO168  THR169  GLY170  VAL171  HIS172  ALA173  PHE181  PHE185  VAL186  ASP187 
 ARG188  GLN189  THR190  ALA191  GLN192  ALA193 

> <Gold.Protein.RotatedAtoms>
  -15.4204   17.0707   75.8219 H   0  0  0  0  0  0  0  0  0  0  0  0  # atno 3372 bound_to 414 
   -3.0954   20.4926   75.2728 H   0  0  0  0  0  0  0  0  0  0  0  0  # atno 3515 bound_to 339 
   -2.7929   16.7420   72.5442 H   0  0  0  0  0  0  0  0  0  0  0  0  # atno 3523 bound_to 346 
   -7.6513   25.1709   63.1226 H   0  0  0  0  0  0  0  0  0  0  0  0  # atno 3576 bound_to 185 
   -8.1084   28.3234   65.4781 H   0  0  0  0  0  0  0  0  0  0  0  0  # atno 3663 bound_to 154 
   -3.4373   23.8914   71.8260 H   0  0  0  0  0  0  0  0  0  0  0  0  # atno 3793 bound_to 171 
   -6.1399   23.6969   71.7385 H   0  0  0  0  0  0  0  0  0  0  0  0  # atno 3800 bound_to 178 
  -15.6688    7.3720   77.9464 H   0  0  0  0  0  0  0  0  0  0  0  0  # atno 3973 bound_to 1471
  -20.7222   12.4711   63.1787 H   0  0  0  0  0  0  0  0  0  0  0  0  # atno 4183 bound_to 1244
  -13.8760   16.3896   61.8811 H   0  0  0  0  0  0  0  0  0  0  0  0  # atno 4268 bound_to 1114
  -16.0269   20.3621   59.1623 H   0  0  0  0  0  0  0  0  0  0  0  0  # atno 4280 bound_to 1130
  -10.4397   14.9033   56.8685 H   0  0  0  0  0  0  0  0  0  0  0  0  # atno 4409 bound_to 924 
  -15.0163    8.3282   76.8027 LP  0  0  0  0  0  0  0  0  0  0  0  0  # atno 4696 bound_to 1471
  -15.3469    8.9310   78.2839 LP  0  0  0  0  0  0  0  0  0  0  0  0  # atno 4697 bound_to 1471
  -13.9272   17.5919   76.2049 LP  0  0  0  0  0  0  0  0  0  0  0  0  # atno 4731 bound_to 414 
  -14.7434   18.2801   74.9692 LP  0  0  0  0  0  0  0  0  0  0  0  0  # atno 4732 bound_to 414 
  -12.3992   15.7273   61.7130 LP  0  0  0  0  0  0  0  0  0  0  0  0  # atno 4733 bound_to 1114
  -13.6352   15.2229   60.7726 LP  0  0  0  0  0  0  0  0  0  0  0  0  # atno 4734 bound_to 1114
  -11.9690   15.3548   56.5441 LP  0  0  0  0  0  0  0  0  0  0  0  0  # atno 4763 bound_to 924 
  -11.4620   15.2306   58.0914 LP  0  0  0  0  0  0  0  0  0  0  0  0  # atno 4764 bound_to 924 
  -20.7902   13.1772   64.6432 LP  0  0  0  0  0  0  0  0  0  0  0  0  # atno 4771 bound_to 1244
  -19.8523   13.8154   63.4686 LP  0  0  0  0  0  0  0  0  0  0  0  0  # atno 4772 bound_to 1244
   -6.9303   22.2863   71.5556 LP  0  0  0  0  0  0  0  0  0  0  0  0  # atno 4775 bound_to 178 
   -7.5505   23.4548   72.5129 LP  0  0  0  0  0  0  0  0  0  0  0  0  # atno 4776 bound_to 178 
   -2.6554   24.9961   72.7293 LP  0  0  0  0  0  0  0  0  0  0  0  0  # atno 4779 bound_to 171 
   -1.8632   23.6783   72.1792 LP  0  0  0  0  0  0  0  0  0  0  0  0  # atno 4780 bound_to 171 
   -7.4844   26.7435   63.5062 LP  0  0  0  0  0  0  0  0  0  0  0  0  # atno 4783 bound_to 185 
   -8.8180   25.9237   63.9711 LP  0  0  0  0  0  0  0  0  0  0  0  0  # atno 4784 bound_to 185 
   -1.8734   17.9813   73.0605 LP  0  0  0  0  0  0  0  0  0  0  0  0  # atno 4785 bound_to 346 
   -3.4971   18.1398   72.9895 LP  0  0  0  0  0  0  0  0  0  0  0  0  # atno 4786 bound_to 346 
   -2.7408   22.0731   75.4286 LP  0  0  0  0  0  0  0  0  0  0  0  0  # atno 4787 bound_to 339 
   -3.6326   21.5544   74.1628 LP  0  0  0  0  0  0  0  0  0  0  0  0  # atno 4788 bound_to 339 
   -6.6994   29.1074   65.2580 LP  0  0  0  0  0  0  0  0  0  0  0  0  # atno 4797 bound_to 154 
   -8.1150   29.8733   64.9821 LP  0  0  0  0  0  0  0  0  0  0  0  0  # atno 4798 bound_to 154 

> <Gold.Score>
     Score     S(PLP)   S(hbond)     S(cho)   S(metal)  DE(clash)   DE(tors)     intcor
     44.46     -40.01       2.00       0.00       0.00       0.00       0.81       0.07

> <Gold.PLP.Fitness>
44.4608

> <Gold.PLP.PLP>
-40.0091

> <Gold.PLP.part.hbond>
-2.0000

> <Gold.PLP.part.metal>
0.0000

> <Gold.PLP.part.buried>
-5.0811

> <Gold.PLP.part.nonpolar>
-34.1050

> <Gold.PLP.part.repulsive>
0.1975

> <Gold.PLP.ligand.clash>
0.0000

> <Gold.PLP.ligand.torsion>
0.8075

> <Gold.PLP.Chemscore.Hbond>
2.0000

> <Gold.PLP.Chemscore.CHOScore>
0.0000

> <Gold.PLP.Chemscore.Metal>
0.0000

> <Gold.Chemscore.Hbonds>
donor molecule, donor type, donor heavy atom, donor atom, acceptor molecule, acceptor atom, score
      L1  H     5    17       P1  1464  1.00
      P1  H  1281  4132       L1     4  1.00

> <Gold.PLP.Chemscore.Internal.Correction>
0.0668

