#       Name:                xxxx
#       Creating user name   williammccorkindale
#       Creation time:       Sun May 22 19:49:21 2022


#       File generated by GOLD software.
#

@<TRIPOS>MOLECULE
xxxx
    26    26     1
SMALL
NO_CHARGES


@<TRIPOS>ATOM
      1 C01         -3.3571  -2.6038   2.1574 C.3            1 LIG1101            0.0000
      2 S02         -1.6960  -2.0098   1.7334 S.o2           1 LIG1101            0.0000
      3 O03         -0.7080  -3.0927   1.7494 O.2            1 LIG1101            0.0000
      4 O04         -1.1520  -1.1618   2.7804 O.2            1 LIG1101            0.0000
      5 N05         -1.7301  -1.1868   0.2414 N.pl3          1 LIG1101            0.0000
      6 C06         -0.4771  -0.6788  -0.2546 C.3            1 LIG1101            0.0000
      7 C07         -0.5811   0.6002  -1.0736 C.3            1 LIG1101            0.0000
      8 C08          0.8130   1.2062  -1.0276 C.ar           1 LIG1101            0.0000
      9 C09          1.1180   2.2522  -0.1666 C.ar           1 LIG1101            0.0000
     10 C10          2.4070   2.7582  -0.1426 C.ar           1 LIG1101            0.0000
     11 C11          3.3880   2.2052  -0.9506 C.ar           1 LIG1101            0.0000
     12 C12          3.0800   1.1512  -1.8006 C.ar           1 LIG1101            0.0000
     13 C13          1.7920   0.6552  -1.8306 C.ar           1 LIG1101            0.0000
     14 H1          -3.3434  -3.0383   3.1559 H              1 LIG1101            0.0000
     15 H2          -4.0576  -1.7704   2.1338 H              1 LIG1101            0.0000
     16 H3          -3.6673  -3.3593   1.4370 H              1 LIG1101            0.0000
     17 H4          -2.5949  -1.0603  -0.2746 H              1 LIG1101            0.0000
     18 H5          -0.0260  -1.4461  -0.8820 H              1 LIG1101            0.0000
     19 H6           0.1694  -0.4817   0.5993 H              1 LIG1101            0.0000
     20 H7          -1.3093   1.2796  -0.6330 H              1 LIG1101            0.0000
     21 H8          -0.8682   0.3761  -2.0999 H              1 LIG1101            0.0000
     22 H9           0.3510   2.6706   0.4835 H              1 LIG1101            0.0000
     23 H10          2.6505   3.5930   0.5130 H              1 LIG1101            0.0000
     24 H11          4.4031   2.5983  -0.9188 H              1 LIG1101            0.0000
     25 H12          3.8491   0.7189  -2.4390 H              1 LIG1101            0.0000
     26 H13          1.5467  -0.1751  -2.4911 H              1 LIG1101            0.0000
@<TRIPOS>BOND
    1    1    2 1     
    2    2    3 2     
    3    2    4 2     
    4    2    5 1     
    5    5    6 1     
    6    6    7 1     
    7    7    8 1     
    8    8    9 ar    
    9    9   10 ar    
   10   10   11 ar    
   11   11   12 ar    
   12    8   13 ar    
   13   12   13 ar    
   14    1   14 1     
   15    1   15 1     
   16    1   16 1     
   17    5   17 1     
   18    6   18 1     
   19    6   19 1     
   20    7   20 1     
   21    7   21 1     
   22    9   22 1     
   23   10   23 1     
   24   11   24 1     
   25   12   25 1     
   26   13   26 1     
@<TRIPOS>SUBSTRUCTURE
      1 LIG1101        1
@<TRIPOS>SET
LONE_PAIRS      STATIC     ATOMS    <user>   **** ""
2 3 4
DONOR_HYDROGENS      STATIC     ATOMS    <user>   **** ""
1 17
ATOM$BLUE        STATIC     ATOMS    COLORGROUP SYSTEM
2 3 4
ATOM$RED        STATIC     ATOMS    COLORGROUP SYSTEM
1 17
