#       Name:                unknown
#       Creating user name   williammccorkindale
#       Creation time:       Tue Jun  7 14:55:38 2022


#       File generated by GOLD software.
#

@<TRIPOS>MOLECULE
unknown|prepared_Mpro-x1249|mol2|1|dock3
    38    39     1
SMALL
NO_CHARGES


@<TRIPOS>ATOM
      1 O1         -11.5733  13.7245  68.6129 O.2            1 RES1               0.0000
      2 C2         -11.8178  14.5567  69.4383 C.2            1 RES1               0.0000
      3 N3         -11.9068  15.9996  69.0443 N.am           1 RES1               0.0000
      4 C4         -11.5215  16.4245  67.7231 C.3            1 RES1               0.0000
      5 C5         -10.7094  17.6588  67.8670 C.ar           1 RES1               0.0000
      6 C6          -9.4878  17.5394  68.7535 C.ar           1 RES1               0.0000
      7 C7          -8.5398  18.5804  68.7012 C.ar           1 RES1               0.0000
      8 C8          -8.7103  19.7318  67.7997 C.ar           1 RES1               0.0000
      9 C9          -7.7216  20.6942  67.5998 C.1            1 RES1               0.0000
     10 N10         -7.0872  21.3249  67.4654 N.1            1 RES1               0.0000
     11 C11         -9.9236  19.7184  67.1065 C.ar           1 RES1               0.0000
     12 C12        -10.8015  18.6962  67.2106 C.ar           1 RES1               0.0000
     13 N13        -12.0465  14.5389  70.8653 N.am           1 RES1               0.0000
     14 C14        -12.4305  13.2518  71.5159 C.3            1 RES1               0.0000
     15 C15        -13.7953  13.5380  72.1260 C.3            1 RES1               0.0000
     16 O16        -14.1633  14.8038  72.2462 O.3            1 RES1               0.0000
     17 C17        -13.3770  15.9039  72.1219 C.3            1 RES1               0.0000
     18 C18        -11.9607  15.6646  71.7202 C.3            1 RES1               0.0000
     19 H19        -12.4274  16.6140  69.6178 H              1 RES1               0.0000
     20 H20        -12.4490  16.6402  67.1181 H              1 RES1               0.0000
     21 H21        -10.9023  15.6997  67.1526 H              1 RES1               0.0000
     22 H22         -9.3950  16.6785  69.3129 H              1 RES1               0.0000
     23 H23         -7.7615  18.4740  69.3567 H              1 RES1               0.0000
     24 H24        -10.1443  20.5124  66.3648 H              1 RES1               0.0000
     25 H25        -11.8722  18.8472  66.7521 H              1 RES1               0.0000
     26 H26        -12.4729  12.4946  70.7240 H              1 RES1               0.0000
     27 H27        -11.7025  12.9573  72.2316 H              1 RES1               0.0000
     28 H28        -14.5619  13.0299  71.4319 H              1 RES1               0.0000
     29 H29        -13.9400  12.8810  73.0781 H              1 RES1               0.0000
     30 H30        -13.4067  16.5956  73.1021 H              1 RES1               0.0000
     31 H31        -13.7824  16.6666  71.3998 H              1 RES1               0.0000
     32 H32        -11.3862  15.3004  72.6611 H              1 RES1               0.0000
     33 H33        -11.4794  16.4591  71.2481 H              1 RES1               0.0000
     34 ****       -11.4285  13.9924  67.6604 LP             1 RES1               0.0000
     35 ****       -11.5140  12.7616  68.8760 LP             1 RES1               0.0000
     36 ****        -6.3859  22.0221  67.3168 LP             1 RES1               0.0000
     37 ****       -14.5550  14.8709  73.1638 LP             1 RES1               0.0000
     38 ****       -14.8856  14.9266  71.5656 LP             1 RES1               0.0000
@<TRIPOS>BOND
    1    1    2 2     
    2    2    3 am    
    3    3    4 1     
    4    4    5 1     
    5    5    6 ar    
    6    6    7 ar    
    7    7    8 ar    
    8    8    9 1     
    9    9   10 3     
   10    8   11 ar    
   11   11   12 ar    
   12    2   13 am    
   13   13   14 1     
   14   14   15 1     
   15   15   16 1     
   16   16   17 1     
   17   17   18 1     
   18    5   12 ar    
   19   18   13 1     
   20    3   19 1     
   21    4   20 1     
   22    4   21 1     
   23    6   22 1     
   24    7   23 1     
   25   11   24 1     
   26   12   25 1     
   27   14   26 1     
   28   14   27 1     
   29   15   28 1     
   30   15   29 1     
   31   17   30 1     
   32   17   31 1     
   33   18   32 1     
   34   18   33 1     
   35    1   34 1     
   36    1   35 1     
   37   10   36 1     
   38   16   37 1     
   39   16   38 1     
@<TRIPOS>SUBSTRUCTURE
      1 RES1           1
@<TRIPOS>SET
LONE_PAIRS      STATIC     ATOMS    <user>   **** ""
5 34 35 36 37 38
DONOR_HYDROGENS      STATIC     ATOMS    <user>   **** ""
1 19
ATOM$BLUE        STATIC     ATOMS    COLORGROUP SYSTEM
5 34 35 36 37 38
ATOM$RED        STATIC     ATOMS    COLORGROUP SYSTEM
1 19
@<TRIPOS>COMMENT
> <Gold.Version>
2022.1.0

> <Gold.Id.Protein>
6LU7|6LU7_protein|mol2

> <Gold.Protein.RotatedTorsions>
[ 3973 1471 1470 1467 ] final   48.56 input   60.00 | X-H torsion
[ 3372  414  413  411 ] final   13.01 input   60.00 | X-H torsion
[ 4268 1114 1113 1110 ] final    5.25 input   59.99 | X-H torsion
[ 4409  924  923  921 ] final   39.06 input   59.99 | X-H torsion
[ 4183 1244 1243 1241 ] final  144.99 input   59.99 | X-H torsion
[ 3800  178  177  174 ] final  -49.50 input   60.00 | X-H torsion
[ 3793  171  170  167 ] final -149.35 input   60.00 | X-H torsion
[ 3576  185  184  181 ] final  -21.82 input   60.00 | X-H torsion
[ 3523  346  345  342 ] final -134.55 input   60.01 | X-H torsion
[ 3515  339  338  335 ] final   35.02 input   60.00 | X-H torsion
[ 3663  154  153  150 ] final -159.18 input   60.00 | X-H torsion
[ 4280 1130 1129 1126 ] final  -49.27 input   60.00 | X-H torsion

> <Gold.Protein.ActiveResidues>
 VAL20   THR21   CYS22   GLY23   THR24   THR25   THR26   LEU27   ASN28   PRO39  
 ARG40   HIS41   VAL42   CYS44   THR45   SER46   ASP48   MET49   LEU50   PRO52  
 TYR54   TYR118  ASN119  ILE136  GLY138  SER139  PHE140  LEU141  ASN142  GLY143 
 SER144  CYS145  GLY146  SER147  TYR161  HIS163  HIS164  MET165  GLU166  LEU167 
 PRO168  THR169  GLY170  VAL171  HIS172  ALA173  PHE181  PHE185  VAL186  ASP187 
 ARG188  GLN189  THR190  ALA191  GLN192  ALA193 

> <Gold.Protein.RotatedAtoms>
  -14.1245   18.3065   75.3328 H   0  0  0  0  0  0  0  0  0  0  0  0  # atno 3372 bound_to 414 
   -3.6641   21.3473   74.1695 H   0  0  0  0  0  0  0  0  0  0  0  0  # atno 3515 bound_to 339 
   -2.3489   16.8013   72.6006 H   0  0  0  0  0  0  0  0  0  0  0  0  # atno 3523 bound_to 346 
   -8.7223   25.4207   63.7706 H   0  0  0  0  0  0  0  0  0  0  0  0  # atno 3576 bound_to 185 
   -6.7253   29.2859   65.2029 H   0  0  0  0  0  0  0  0  0  0  0  0  # atno 3663 bound_to 154 
   -1.7666   24.2332   72.5388 H   0  0  0  0  0  0  0  0  0  0  0  0  # atno 3793 bound_to 171 
   -6.3808   22.5980   71.3575 H   0  0  0  0  0  0  0  0  0  0  0  0  # atno 3800 bound_to 178 
  -15.3318    7.5059   77.0597 H   0  0  0  0  0  0  0  0  0  0  0  0  # atno 3973 bound_to 1471
  -20.1385   13.1067   62.8825 H   0  0  0  0  0  0  0  0  0  0  0  0  # atno 4183 bound_to 1244
  -13.2914   16.4342   62.1273 H   0  0  0  0  0  0  0  0  0  0  0  0  # atno 4268 bound_to 1114
  -16.3778   20.2286   58.3777 H   0  0  0  0  0  0  0  0  0  0  0  0  # atno 4280 bound_to 1130
  -11.1387   15.1020   56.2451 H   0  0  0  0  0  0  0  0  0  0  0  0  # atno 4409 bound_to 924 
  -15.0230    9.0596   77.4318 LP  0  0  0  0  0  0  0  0  0  0  0  0  # atno 4696 bound_to 1471
  -15.6796    8.0648   78.5479 LP  0  0  0  0  0  0  0  0  0  0  0  0  # atno 4697 bound_to 1471
  -15.5452   17.5154   75.2719 LP  0  0  0  0  0  0  0  0  0  0  0  0  # atno 4731 bound_to 414 
  -14.4304   17.1121   76.3948 LP  0  0  0  0  0  0  0  0  0  0  0  0  # atno 4732 bound_to 414 
  -12.5176   15.3083   61.2433 LP  0  0  0  0  0  0  0  0  0  0  0  0  # atno 4733 bound_to 1114
  -14.1055   15.5969   60.9942 LP  0  0  0  0  0  0  0  0  0  0  0  0  # atno 4734 bound_to 1114
  -12.1346   15.4218   57.4917 LP  0  0  0  0  0  0  0  0  0  0  0  0  # atno 4763 bound_to 924 
  -10.5925   14.9634   57.7717 LP  0  0  0  0  0  0  0  0  0  0  0  0  # atno 4764 bound_to 924 
  -21.0584   12.5019   64.0808 LP  0  0  0  0  0  0  0  0  0  0  0  0  # atno 4771 bound_to 1244
  -20.1719   13.8505   64.3294 LP  0  0  0  0  0  0  0  0  0  0  0  0  # atno 4772 bound_to 1244
   -7.6853   22.8401   72.2998 LP  0  0  0  0  0  0  0  0  0  0  0  0  # atno 4775 bound_to 178 
   -6.5530   24.0075   72.1524 LP  0  0  0  0  0  0  0  0  0  0  0  0  # atno 4776 bound_to 178 
   -2.9398   23.4581   71.7199 LP  0  0  0  0  0  0  0  0  0  0  0  0  # atno 4779 bound_to 171 
   -3.2616   24.8721   72.4707 LP  0  0  0  0  0  0  0  0  0  0  0  0  # atno 4780 bound_to 171 
   -7.2763   25.5643   63.0383 LP  0  0  0  0  0  0  0  0  0  0  0  0  # atno 4783 bound_to 185 
   -7.9474   26.8514   63.7864 LP  0  0  0  0  0  0  0  0  0  0  0  0  # atno 4784 bound_to 185 
   -2.1621   18.3184   73.1591 LP  0  0  0  0  0  0  0  0  0  0  0  0  # atno 4785 bound_to 346 
   -3.6554   17.7429   72.8341 LP  0  0  0  0  0  0  0  0  0  0  0  0  # atno 4786 bound_to 346 
   -2.9805   20.5744   75.4278 LP  0  0  0  0  0  0  0  0  0  0  0  0  # atno 4787 bound_to 339 
   -2.8201   22.1923   75.2748 LP  0  0  0  0  0  0  0  0  0  0  0  0  # atno 4788 bound_to 339 
   -8.2683   29.7666   65.0126 LP  0  0  0  0  0  0  0  0  0  0  0  0  # atno 4797 bound_to 154 
   -7.9389   28.2447   65.5047 LP  0  0  0  0  0  0  0  0  0  0  0  0  # atno 4798 bound_to 154 

> <Gold.Score>
     Score     S(PLP)   S(hbond)     S(cho)   S(metal)  DE(clash)   DE(tors)     intcor
     41.80     -39.99       0.86       0.00       0.00       1.90       0.35       1.82

> <Gold.PLP.Fitness>
41.7955

> <Gold.PLP.PLP>
-39.9879

> <Gold.PLP.part.hbond>
-0.9688

> <Gold.PLP.part.metal>
0.0000

> <Gold.PLP.part.buried>
-6.4670

> <Gold.PLP.part.nonpolar>
-33.2683

> <Gold.PLP.part.repulsive>
0.3741

> <Gold.PLP.ligand.clash>
1.8990

> <Gold.PLP.ligand.torsion>
0.3510

> <Gold.PLP.Chemscore.Hbond>
0.8613

> <Gold.PLP.Chemscore.CHOScore>
0.0000

> <Gold.PLP.Chemscore.Metal>
0.0000

> <Gold.Chemscore.Hbonds>
donor molecule, donor type, donor heavy atom, donor atom, acceptor molecule, acceptor atom, score
      P1  H   180  3804       L1    10  0.86

> <Gold.PLP.Chemscore.Internal.Correction>
1.8248

