#       Name:                unknown
#       Creating user name   williammccorkindale
#       Creation time:       Tue Jun  7 14:55:35 2022


#       File generated by GOLD software.
#

@<TRIPOS>MOLECULE
unknown|prepared_Mpro-x0104|mol2|1|dock2
    31    32     1
SMALL
NO_CHARGES


@<TRIPOS>ATOM
      1 C1         -11.1249  11.6395  63.8248 C.3            1 RES1               0.0000
      2 C2         -11.7296  12.6694  64.7142 C.2            1 RES1               0.0000
      3 O3         -12.9032  12.5956  65.1274 O.2            1 RES1               0.0000
      4 N4         -10.9698  13.8004  65.1329 N.am           1 RES1               0.0000
      5 C5         -11.5602  14.8013  65.9975 C.3            1 RES1               0.0000
      6 C6         -11.7905  14.1730  67.3501 C.3            1 RES1               0.0000
      7 C7         -11.5545  15.1171  68.4587 C.2            1 RES1               0.0000
      8 C8         -10.9395  16.3497  68.4618 C.2            1 RES1               0.0000
      9 N9         -10.9584  16.8410  69.7083 N.pl3          1 RES1               0.0000
     10 C10        -11.5745  15.9686  70.5575 C.ar           1 RES1               0.0000
     11 C11        -11.8360  16.0189  71.9082 C.ar           1 RES1               0.0000
     12 C12        -12.4910  14.9503  72.4828 C.ar           1 RES1               0.0000
     13 C13        -12.8845  13.8501  71.7496 C.ar           1 RES1               0.0000
     14 F14        -13.5219  12.8311  72.3590 F              1 RES1               0.0000
     15 C15        -12.6014  13.8462  70.4041 C.ar           1 RES1               0.0000
     16 C16        -11.9427  14.8927  69.7612 C.ar           1 RES1               0.0000
     17 H17        -10.8140  12.1080  62.8725 H              1 RES1               0.0000
     18 H18        -11.8947  10.8379  63.6602 H              1 RES1               0.0000
     19 H19        -10.2594  11.1330  64.2984 H              1 RES1               0.0000
     20 H20         -9.9867  13.8791  64.7982 H              1 RES1               0.0000
     21 H21        -12.5137  15.2012  65.6029 H              1 RES1               0.0000
     22 H22        -10.8597  15.6647  66.0546 H              1 RES1               0.0000
     23 H23        -11.1515  13.2822  67.5087 H              1 RES1               0.0000
     24 H24        -12.8397  13.7917  67.3531 H              1 RES1               0.0000
     25 H25        -10.5293  16.8041  67.5910 H              1 RES1               0.0000
     26 H26        -10.5550  17.7562  69.9669 H              1 RES1               0.0000
     27 H27        -11.5523  16.8488  72.5272 H              1 RES1               0.0000
     28 H28        -12.7093  14.9701  73.5500 H              1 RES1               0.0000
     29 H29        -12.8978  12.9912  69.7839 H              1 RES1               0.0000
     30 ****       -13.4787  11.8218  64.8627 LP             1 RES1               0.0000
     31 ****       -13.2693  13.3101  65.7235 LP             1 RES1               0.0000
@<TRIPOS>BOND
    1    1    2 1     
    2    2    3 2     
    3    2    4 am    
    4    4    5 1     
    5    5    6 1     
    6    6    7 1     
    7    7    8 2     
    8    8    9 1     
    9    9   10 1     
   10   10   11 ar    
   11   11   12 ar    
   12   12   13 ar    
   13   13   14 1     
   14   13   15 ar    
   15   15   16 ar    
   16   16    7 1     
   17   10   16 ar    
   18    1   17 1     
   19    1   18 1     
   20    1   19 1     
   21    4   20 1     
   22    5   21 1     
   23    5   22 1     
   24    6   23 1     
   25    6   24 1     
   26    8   25 1     
   27    9   26 1     
   28   11   27 1     
   29   12   28 1     
   30   15   29 1     
   31    3   30 1     
   32    3   31 1     
@<TRIPOS>SUBSTRUCTURE
      1 RES1           1
@<TRIPOS>SET
LONE_PAIRS      STATIC     ATOMS    <user>   **** ""
2 30 31
DONOR_HYDROGENS      STATIC     ATOMS    <user>   **** ""
2 20 26
ATOM$BLUE        STATIC     ATOMS    COLORGROUP SYSTEM
2 30 31
ATOM$RED        STATIC     ATOMS    COLORGROUP SYSTEM
2 20 26
@<TRIPOS>COMMENT
> <Gold.Version>
2022.1.0

> <Gold.Id.Protein>
6LU7|6LU7_protein|mol2

> <Gold.Protein.RotatedTorsions>
[ 3973 1471 1470 1467 ] final -113.48 input   60.00 | X-H torsion
[ 3372  414  413  411 ] final   39.71 input   60.00 | X-H torsion
[ 4268 1114 1113 1110 ] final  117.01 input   59.99 | X-H torsion
[ 4409  924  923  921 ] final -148.05 input   59.99 | X-H torsion
[ 4183 1244 1243 1241 ] final   58.61 input   59.99 | X-H torsion
[ 3800  178  177  174 ] final   22.07 input   60.00 | X-H torsion
[ 3793  171  170  167 ] final  -43.25 input   60.00 | X-H torsion
[ 3576  185  184  181 ] final -160.77 input   60.00 | X-H torsion
[ 3523  346  345  342 ] final   27.16 input   60.01 | X-H torsion
[ 3515  339  338  335 ] final  124.38 input   60.00 | X-H torsion
[ 3663  154  153  150 ] final  124.84 input   60.00 | X-H torsion
[ 4280 1130 1129 1126 ] final   40.65 input   60.00 | X-H torsion

> <Gold.Protein.ActiveResidues>
 VAL20   THR21   CYS22   GLY23   THR24   THR25   THR26   LEU27   ASN28   PRO39  
 ARG40   HIS41   VAL42   CYS44   THR45   SER46   ASP48   MET49   LEU50   PRO52  
 TYR54   TYR118  ASN119  ILE136  GLY138  SER139  PHE140  LEU141  ASN142  GLY143 
 SER144  CYS145  GLY146  SER147  TYR161  HIS163  HIS164  MET165  GLU166  LEU167 
 PRO168  THR169  GLY170  VAL171  HIS172  ALA173  PHE181  PHE185  VAL186  ASP187 
 ARG188  GLN189  THR190  ALA191  GLN192  ALA193 

> <Gold.Protein.RotatedAtoms>
  -13.8985   18.1322   75.6577 H   0  0  0  0  0  0  0  0  0  0  0  0  # atno 3372 bound_to 414 
   -3.0711   22.2987   74.8598 H   0  0  0  0  0  0  0  0  0  0  0  0  # atno 3515 bound_to 339 
   -3.3437   18.2907   73.0584 H   0  0  0  0  0  0  0  0  0  0  0  0  # atno 3523 bound_to 346 
   -7.1729   25.8536   63.0733 H   0  0  0  0  0  0  0  0  0  0  0  0  # atno 3576 bound_to 185 
   -7.6032   29.9915   64.9584 H   0  0  0  0  0  0  0  0  0  0  0  0  # atno 3663 bound_to 154 
   -3.0766   24.9551   72.5740 H   0  0  0  0  0  0  0  0  0  0  0  0  # atno 3793 bound_to 171 
   -6.1013   23.6090   71.6715 H   0  0  0  0  0  0  0  0  0  0  0  0  # atno 3800 bound_to 178 
  -15.2383    9.0518   78.0704 H   0  0  0  0  0  0  0  0  0  0  0  0  # atno 3973 bound_to 1471
  -20.9439   12.3792   63.5639 H   0  0  0  0  0  0  0  0  0  0  0  0  # atno 4183 bound_to 1244
  -14.1547   15.6945   61.0738 H   0  0  0  0  0  0  0  0  0  0  0  0  # atno 4268 bound_to 1114
  -15.7609   20.0446   59.5336 H   0  0  0  0  0  0  0  0  0  0  0  0  # atno 4280 bound_to 1130
  -11.3265   15.1923   58.1022 H   0  0  0  0  0  0  0  0  0  0  0  0  # atno 4409 bound_to 924 
  -15.7138    7.4994   78.1782 LP  0  0  0  0  0  0  0  0  0  0  0  0  # atno 4696 bound_to 1471
  -15.0829    8.0681   76.7835 LP  0  0  0  0  0  0  0  0  0  0  0  0  # atno 4697 bound_to 1471
  -15.3743   17.8400   75.0373 LP  0  0  0  0  0  0  0  0  0  0  0  0  # atno 4731 bound_to 414 
  -14.8289   16.9630   76.3022 LP  0  0  0  0  0  0  0  0  0  0  0  0  # atno 4732 bound_to 414 
  -13.1605   16.4065   62.1473 LP  0  0  0  0  0  0  0  0  0  0  0  0  # atno 4733 bound_to 1114
  -12.5931   15.2436   61.1513 LP  0  0  0  0  0  0  0  0  0  0  0  0  # atno 4734 bound_to 1114
  -10.4878   14.9130   56.7360 LP  0  0  0  0  0  0  0  0  0  0  0  0  # atno 4763 bound_to 924 
  -12.0502   15.3812   56.6570 LP  0  0  0  0  0  0  0  0  0  0  0  0  # atno 4764 bound_to 924 
  -20.5146   13.5410   64.6194 LP  0  0  0  0  0  0  0  0  0  0  0  0  # atno 4771 bound_to 1244
  -19.9047   13.5441   63.1046 LP  0  0  0  0  0  0  0  0  0  0  0  0  # atno 4772 bound_to 1244
   -7.0320   22.2753   71.6143 LP  0  0  0  0  0  0  0  0  0  0  0  0  # atno 4775 bound_to 178 
   -7.4878   23.5543   72.5216 LP  0  0  0  0  0  0  0  0  0  0  0  0  # atno 4776 bound_to 178 
   -1.7423   24.0349   72.4299 LP  0  0  0  0  0  0  0  0  0  0  0  0  # atno 4779 bound_to 171 
   -3.1396   23.5682   71.7252 LP  0  0  0  0  0  0  0  0  0  0  0  0  # atno 4780 bound_to 171 
   -8.2216   26.7748   63.9097 LP  0  0  0  0  0  0  0  0  0  0  0  0  # atno 4783 bound_to 185 
   -8.5626   25.2049   63.6172 LP  0  0  0  0  0  0  0  0  0  0  0  0  # atno 4784 bound_to 185 
   -3.0149   16.7839   72.5393 LP  0  0  0  0  0  0  0  0  0  0  0  0  # atno 4785 bound_to 346 
   -1.8009   17.7774   72.9928 LP  0  0  0  0  0  0  0  0  0  0  0  0  # atno 4786 bound_to 346 
   -3.6417   20.8742   74.3184 LP  0  0  0  0  0  0  0  0  0  0  0  0  # atno 4787 bound_to 339 
   -2.7561   20.9344   75.6890 LP  0  0  0  0  0  0  0  0  0  0  0  0  # atno 4788 bound_to 339 
   -8.4772   28.6773   65.3548 LP  0  0  0  0  0  0  0  0  0  0  0  0  # atno 4797 bound_to 154 
   -6.8460   28.6234   65.4088 LP  0  0  0  0  0  0  0  0  0  0  0  0  # atno 4798 bound_to 154 

> <Gold.Score>
     Score     S(PLP)   S(hbond)     S(cho)   S(metal)  DE(clash)   DE(tors)     intcor
     44.57     -45.43       0.00       0.00       0.00       0.00       0.44       0.01

> <Gold.PLP.Fitness>
44.5659

> <Gold.PLP.PLP>
-45.4308

> <Gold.PLP.part.hbond>
-0.6329

> <Gold.PLP.part.metal>
0.0000

> <Gold.PLP.part.buried>
-7.1626

> <Gold.PLP.part.nonpolar>
-38.3531

> <Gold.PLP.part.repulsive>
0.2086

> <Gold.PLP.ligand.clash>
0.0000

> <Gold.PLP.ligand.torsion>
0.4392

> <Gold.PLP.Chemscore.Hbond>
0.0000

> <Gold.PLP.Chemscore.CHOScore>
0.0000

> <Gold.PLP.Chemscore.Metal>
0.0000

> <Gold.PLP.Chemscore.Internal.Correction>
0.0134

