#       Name:                unknown
#       Creating user name   williammccorkindale
#       Creation time:       Tue Jun  7 14:55:36 2022


#       File generated by GOLD software.
#

@<TRIPOS>MOLECULE
unknown|prepared_Mpro-x0072|mol2|1|dock3
    27    27     1
SMALL
NO_CHARGES


@<TRIPOS>ATOM
      1 C1         -10.7993  19.7981  65.9211 C.3            1 RES1               0.0000
      2 S2         -10.0520  18.4654  66.8572 S.o2           1 RES1               0.0000
      3 O3          -9.3429  17.5308  65.9289 O.2            1 RES1               0.0000
      4 O4          -9.0205  19.0985  67.7504 O.2            1 RES1               0.0000
      5 N5         -11.2060  17.6088  67.7817 N.3            1 RES1               0.0000
      6 C6         -10.5796  16.6744  68.7020 C.3            1 RES1               0.0000
      7 C7         -11.4099  15.4490  68.9121 C.3            1 RES1               0.0000
      8 C8         -11.9258  15.3309  70.2942 C.ar           1 RES1               0.0000
      9 C9         -12.8527  14.3473  70.6218 C.ar           1 RES1               0.0000
     10 C10        -13.3412  14.2268  71.9058 C.ar           1 RES1               0.0000
     11 C11        -12.9233  15.0833  72.9122 C.ar           1 RES1               0.0000
     12 C12        -11.9956  16.0726  72.5981 C.ar           1 RES1               0.0000
     13 C13        -11.5099  16.1841  71.2979 C.ar           1 RES1               0.0000
     14 H14        -10.3165  19.8979  64.9279 H              1 RES1               0.0000
     15 H15        -11.8482  19.4992  65.7270 H              1 RES1               0.0000
     16 H16        -10.7944  20.7453  66.4720 H              1 RES1               0.0000
     17 H17        -11.8351  18.2714  68.2718 H              1 RES1               0.0000
     18 H18         -9.6022  16.3624  68.3008 H              1 RES1               0.0000
     19 H19        -10.4251  17.1628  69.6974 H              1 RES1               0.0000
     20 H20        -10.7905  14.5698  68.6504 H              1 RES1               0.0000
     21 H21        -12.2979  15.4870  68.2273 H              1 RES1               0.0000
     22 H22        -13.2113  13.6536  69.8734 H              1 RES1               0.0000
     23 H23        -14.0604  13.4450  72.1079 H              1 RES1               0.0000
     24 H24        -13.3046  14.9874  73.9096 H              1 RES1               0.0000
     25 H25        -11.6468  16.7531  73.3416 H              1 RES1               0.0000
     26 H26        -10.7805  16.9719  71.0786 H              1 RES1               0.0000
     27 ****       -11.7589  17.0582  67.1564 LP             1 RES1               0.0000
@<TRIPOS>BOND
    1    1    2 1     
    2    2    3 2     
    3    2    4 2     
    4    2    5 1     
    5    5    6 1     
    6    6    7 1     
    7    7    8 1     
    8    8    9 ar    
    9    9   10 ar    
   10   10   11 ar    
   11   11   12 ar    
   12   12   13 ar    
   13    8   13 ar    
   14    1   14 1     
   15    1   15 1     
   16    1   16 1     
   17    5   17 1     
   18    6   18 1     
   19    6   19 1     
   20    7   20 1     
   21    7   21 1     
   22    9   22 1     
   23   10   23 1     
   24   11   24 1     
   25   12   25 1     
   26   13   26 1     
   27    5   27 1     
@<TRIPOS>SUBSTRUCTURE
      1 RES1           1
@<TRIPOS>SET
LONE_PAIRS      STATIC     ATOMS    <user>   **** ""
3 3 4 27
DONOR_HYDROGENS      STATIC     ATOMS    <user>   **** ""
1 17
ATOM$BLUE        STATIC     ATOMS    COLORGROUP SYSTEM
3 3 4 27
ATOM$RED        STATIC     ATOMS    COLORGROUP SYSTEM
1 17
@<TRIPOS>COMMENT
> <Gold.Version>
2022.1.0

> <Gold.Id.Protein>
6LU7|6LU7_protein|mol2

> <Gold.Protein.RotatedTorsions>
[ 3973 1471 1470 1467 ] final   96.22 input   60.00 | X-H torsion
[ 3372  414  413  411 ] final -103.77 input   60.00 | X-H torsion
[ 4268 1114 1113 1110 ] final  -20.68 input   59.99 | X-H torsion
[ 4409  924  923  921 ] final   73.37 input   59.99 | X-H torsion
[ 4183 1244 1243 1241 ] final -102.85 input   59.99 | X-H torsion
[ 3800  178  177  174 ] final -105.70 input   60.00 | X-H torsion
[ 3793  171  170  167 ] final  118.55 input   60.00 | X-H torsion
[ 3576  185  184  181 ] final   79.19 input   60.00 | X-H torsion
[ 3523  346  345  342 ] final -153.03 input   60.01 | X-H torsion
[ 3515  339  338  335 ] final -147.73 input   60.00 | X-H torsion
[ 3663  154  153  150 ] final -117.26 input   60.00 | X-H torsion
[ 4280 1130 1129 1126 ] final  127.76 input   60.00 | X-H torsion

> <Gold.Protein.ActiveResidues>
 VAL20   THR21   CYS22   GLY23   THR24   THR25   THR26   LEU27   ASN28   PRO39  
 ARG40   HIS41   VAL42   CYS44   THR45   SER46   ASP48   MET49   LEU50   PRO52  
 TYR54   TYR118  ASN119  ILE136  GLY138  SER139  PHE140  LEU141  ASN142  GLY143 
 SER144  CYS145  GLY146  SER147  TYR161  HIS163  HIS164  MET165  GLU166  LEU167 
 PRO168  THR169  GLY170  VAL171  HIS172  ALA173  PHE181  PHE185  VAL186  ASP187 
 ARG188  GLN189  THR190  ALA191  GLN192  ALA193 

> <Gold.Protein.RotatedAtoms>
  -15.5289   17.5568   75.2423 H   0  0  0  0  0  0  0  0  0  0  0  0  # atno 3372 bound_to 414 
   -2.6468   21.4401   75.7380 H   0  0  0  0  0  0  0  0  0  0  0  0  # atno 3515 bound_to 339 
   -2.0968   16.9480   72.6733 H   0  0  0  0  0  0  0  0  0  0  0  0  # atno 3523 bound_to 346 
   -8.2194   26.7681   63.9093 H   0  0  0  0  0  0  0  0  0  0  0  0  # atno 3576 bound_to 185 
   -6.8337   28.6555   65.4012 H   0  0  0  0  0  0  0  0  0  0  0  0  # atno 3663 bound_to 154 
   -2.5017   23.3770   71.8016 H   0  0  0  0  0  0  0  0  0  0  0  0  # atno 3793 bound_to 171 
   -7.1385   22.2858   71.6836 H   0  0  0  0  0  0  0  0  0  0  0  0  # atno 3800 bound_to 178 
  -15.6139    7.3136   77.7349 H   0  0  0  0  0  0  0  0  0  0  0  0  # atno 3973 bound_to 1471
  -20.1060   13.8877   64.2252 H   0  0  0  0  0  0  0  0  0  0  0  0  # atno 4183 bound_to 1244
  -12.8946   16.2962   62.1222 H   0  0  0  0  0  0  0  0  0  0  0  0  # atno 4268 bound_to 1114
  -15.5640   18.7976   59.2683 H   0  0  0  0  0  0  0  0  0  0  0  0  # atno 4280 bound_to 1130
  -10.6663   14.9646   56.4961 H   0  0  0  0  0  0  0  0  0  0  0  0  # atno 4409 bound_to 924 
  -14.9807    8.5413   76.8749 LP  0  0  0  0  0  0  0  0  0  0  0  0  # atno 4696 bound_to 1471
  -15.4378    8.7768   78.4248 LP  0  0  0  0  0  0  0  0  0  0  0  0  # atno 4697 bound_to 1471
  -14.4771   17.0871   76.3918 LP  0  0  0  0  0  0  0  0  0  0  0  0  # atno 4731 bound_to 414 
  -14.0841   18.2954   75.3660 LP  0  0  0  0  0  0  0  0  0  0  0  0  # atno 4732 bound_to 414 
  -12.8023   15.1437   60.9772 LP  0  0  0  0  0  0  0  0  0  0  0  0  # atno 4733 bound_to 1114
  -14.2204   15.9004   61.2656 LP  0  0  0  0  0  0  0  0  0  0  0  0  # atno 4734 bound_to 1114
  -12.1650   15.4208   56.9363 LP  0  0  0  0  0  0  0  0  0  0  0  0  # atno 4763 bound_to 924 
  -11.0379   15.1028   58.0743 LP  0  0  0  0  0  0  0  0  0  0  0  0  # atno 4764 bound_to 924 
  -20.2073   12.9993   62.8657 LP  0  0  0  0  0  0  0  0  0  0  0  0  # atno 4771 bound_to 1244
  -21.0557   12.5667   64.1922 LP  0  0  0  0  0  0  0  0  0  0  0  0  # atno 4772 bound_to 1244
   -7.4090   23.6548   72.5207 LP  0  0  0  0  0  0  0  0  0  0  0  0  # atno 4775 bound_to 178 
   -6.0663   23.5073   71.6031 LP  0  0  0  0  0  0  0  0  0  0  0  0  # atno 4776 bound_to 178 
   -3.5094   24.5834   72.2221 LP  0  0  0  0  0  0  0  0  0  0  0  0  # atno 4779 bound_to 171 
   -1.9515   24.6091   72.7110 LP  0  0  0  0  0  0  0  0  0  0  0  0  # atno 4780 bound_to 171 
   -8.5621   25.2045   63.6168 LP  0  0  0  0  0  0  0  0  0  0  0  0  # atno 4783 bound_to 185 
   -7.1681   25.8542   63.0682 LP  0  0  0  0  0  0  0  0  0  0  0  0  # atno 4784 bound_to 185 
   -2.4305   18.4555   73.1873 LP  0  0  0  0  0  0  0  0  0  0  0  0  # atno 4785 bound_to 346 
   -3.6410   17.4581   72.7327 LP  0  0  0  0  0  0  0  0  0  0  0  0  # atno 4786 bound_to 346 
   -3.3536   22.1436   74.4521 LP  0  0  0  0  0  0  0  0  0  0  0  0  # atno 4787 bound_to 339 
   -3.4714   20.5296   74.6708 LP  0  0  0  0  0  0  0  0  0  0  0  0  # atno 4788 bound_to 339 
   -7.6375   29.9977   64.9533 LP  0  0  0  0  0  0  0  0  0  0  0  0  # atno 4797 bound_to 154 
   -8.4606   28.6485   65.3643 LP  0  0  0  0  0  0  0  0  0  0  0  0  # atno 4798 bound_to 154 

> <Gold.Score>
     Score     S(PLP)   S(hbond)     S(cho)   S(metal)  DE(clash)   DE(tors)     intcor
     43.55     -39.41       1.86       0.00       0.00       0.00       0.74       0.07

> <Gold.PLP.Fitness>
43.5510

> <Gold.PLP.PLP>
-39.4064

> <Gold.PLP.part.hbond>
-1.9259

> <Gold.PLP.part.metal>
0.0000

> <Gold.PLP.part.buried>
-5.1117

> <Gold.PLP.part.nonpolar>
-33.8013

> <Gold.PLP.part.repulsive>
0.0306

> <Gold.PLP.ligand.clash>
0.0000

> <Gold.PLP.ligand.torsion>
0.7447

> <Gold.PLP.Chemscore.Hbond>
1.8558

> <Gold.PLP.Chemscore.CHOScore>
0.0000

> <Gold.PLP.Chemscore.Metal>
0.0000

> <Gold.Chemscore.Hbonds>
donor molecule, donor type, donor heavy atom, donor atom, acceptor molecule, acceptor atom, score
      L1  H     5    17       P1   312  0.86
      P1  H  1105  4261       L1     3  0.99

> <Gold.PLP.Chemscore.Internal.Correction>
0.0668

