unknown|prepared_Mpro-x0397|sdf|1|dock3
  -GOLD-   5 72214353D 1   1.00000     0.00000

 30 31  0  0  0  0  0  0  0  0  1 V2000
   -9.5862   15.4025   69.6623 C   0  0  0  0  0  0  0  0  0  0  0  0
  -11.0280   15.3631   69.4832 N   0  0  0  0  0  0  0  0  0  0  0  0
  -11.5743   15.4408   68.1257 C   0  0  0  0  0  0  0  0  0  0  0  0
  -10.8589   16.4892   67.3401 C   0  0  0  0  0  0  0  0  0  0  0  0
  -10.7995   17.8308   67.5925 C   0  0  0  0  0  0  0  0  0  0  0  0
  -10.0230   18.3889   66.5931 C   0  0  0  0  0  0  0  0  0  0  0  0
   -9.6447   19.8070   66.3964 C   0  0  0  0  0  0  0  0  0  0  0  0
   -9.6599   17.3925   65.8076 O   0  0  0  0  0  0  0  0  0  0  0  0
  -10.1435   16.2726   66.2342 N   0  0  0  0  0  0  0  0  0  0  0  0
  -11.8846   15.2511   70.6069 C   0  0  0  0  0  0  0  0  0  0  0  0
  -11.3774   15.2943   71.7567 O   0  0  0  0  0  0  0  0  0  0  0  0
  -13.2746   15.0950   70.4033 N   0  0  0  0  0  0  0  0  0  0  0  0
  -14.1795   14.9779   71.4979 C   0  0  0  0  0  0  0  0  0  0  0  0
  -13.7371   14.1501   72.6797 C   0  0  0  0  0  0  0  0  0  0  0  0
  -13.9238   15.6163   72.8088 C   0  0  0  0  0  0  0  0  0  0  0  0
   -9.3500   16.1441   70.4763 H   0  0  0  0  0  0  0  0  0  0  0  0
   -9.0628   15.6749   68.7289 H   0  0  0  0  0  0  0  0  0  0  0  0
   -9.2452   14.4014   70.0038 H   0  0  0  0  0  0  0  0  0  0  0  0
  -11.4066   14.4682   67.6187 H   0  0  0  0  0  0  0  0  0  0  0  0
  -12.6675   15.6381   68.1593 H   0  0  0  0  0  0  0  0  0  0  0  0
  -11.2608   18.3771   68.4083 H   0  0  0  0  0  0  0  0  0  0  0  0
   -9.8094   20.0721   65.3276 H   0  0  0  0  0  0  0  0  0  0  0  0
   -8.5649   19.9338   66.5825 H   0  0  0  0  0  0  0  0  0  0  0  0
  -10.2361   20.4727   67.0225 H   0  0  0  0  0  0  0  0  0  0  0  0
  -13.6792   15.0614   69.4236 H   0  0  0  0  0  0  0  0  0  0  0  0
  -15.2555   14.8684   71.2190 H   0  0  0  0  0  0  0  0  0  0  0  0
  -14.4876   13.4631   73.1187 H   0  0  0  0  0  0  0  0  0  0  0  0
  -12.7391   13.6979   72.5930 H   0  0  0  0  0  0  0  0  0  0  0  0
  -13.0446   16.2825   72.9670 H   0  0  0  0  0  0  0  0  0  0  0  0
  -14.7977   15.9275   73.4184 H   0  0  0  0  0  0  0  0  0  0  0  0
  1  2  1  0  0  0  0
  2  3  1  0  0  0  0
  3  4  1  0  0  0  0
  4  5  1  0  0  0  0
  5  6  2  0  0  0  0
  6  7  1  0  0  0  0
  6  8  1  0  0  0  0
  8  9  1  0  0  0  0
  2 10  1  0  0  0  0
 10 11  2  0  0  0  0
 10 12  1  0  0  0  0
 12 13  1  0  0  0  0
 13 14  1  0  0  0  0
 14 15  1  0  0  0  0
  4  9  2  0  0  0  0
 15 13  1  0  0  0  0
  1 16  1  0  0  0  0
  1 17  1  0  0  0  0
  1 18  1  0  0  0  0
  3 19  1  0  0  0  0
  3 20  1  0  0  0  0
  5 21  1  0  0  0  0
  7 22  1  0  0  0  0
  7 23  1  0  0  0  0
  7 24  1  0  0  0  0
 12 25  1  0  0  0  0
 13 26  1  0  0  0  0
 14 27  1  0  0  0  0
 14 28  1  0  0  0  0
 15 29  1  0  0  0  0
 15 30  1  0  0  0  0
M  END
> <Gold.Version>
2022.1.0

> <Gold.Id.Protein>
6LU7|6LU7_protein|mol2

> <Gold.PLP.Fitness>
44.0501

> <Gold.PLP.PLP>
-39.0930

> <Gold.PLP.part.hbond>
-2.0000

> <Gold.PLP.part.metal>
0.0000

> <Gold.PLP.part.buried>
-6.6009

> <Gold.PLP.part.nonpolar>
-31.4973

> <Gold.PLP.part.repulsive>
0.1994

> <Gold.PLP.ligand.clash>
0.0000

> <Gold.PLP.ligand.torsion>
0.5647

> <Gold.PLP.Chemscore.Hbond>
2.0000

> <Gold.PLP.Chemscore.CHOScore>
0.0000

> <Gold.PLP.Chemscore.Metal>
0.0000

> <Gold.Chemscore.Hbonds>
donor molecule, donor type, donor heavy atom, donor atom, acceptor molecule, acceptor atom, score
      L1  H    12    25       P1  1266  1.00
      P1  H  1105  4261       L1     8  1.00

> <Gold.PLP.Chemscore.Internal.Correction>
0.0864

> <Gold.Protein.RotatedTorsions>
[ 3973 1471 1470 1467 ] final   99.81 input   60.00 | X-H torsion
[ 3372  414  413  411 ] final  -25.62 input   60.00 | X-H torsion
[ 4268 1114 1113 1110 ] final -152.99 input   59.99 | X-H torsion
[ 4409  924  923  921 ] final  -60.87 input   59.99 | X-H torsion
[ 4183 1244 1243 1241 ] final   15.06 input   59.99 | X-H torsion
[ 3800  178  177  174 ] final  170.48 input   60.00 | X-H torsion
[ 3793  171  170  167 ] final  156.67 input   60.00 | X-H torsion
[ 3576  185  184  181 ] final  -58.07 input   60.00 | X-H torsion
[ 3523  346  345  342 ] final   50.90 input   60.01 | X-H torsion
[ 3515  339  338  335 ] final -123.70 input   60.00 | X-H torsion
[ 3663  154  153  150 ] final  -29.60 input   60.00 | X-H torsion
[ 4280 1130 1129 1126 ] final -101.53 input   60.00 | X-H torsion

> <Gold.Protein.ActiveResidues>
 VAL20   THR21   CYS22   GLY23   THR24   THR25   THR26   LEU27   ASN28   PRO39  
 ARG40   HIS41   VAL42   CYS44   THR45   SER46   ASP48   MET49   LEU50   PRO52  
 TYR54   TYR118  ASN119  ILE136  GLY138  SER139  PHE140  LEU141  ASN142  GLY143 
 SER144  CYS145  GLY146  SER147  TYR161  HIS163  HIS164  MET165  GLU166  LEU167 
 PRO168  THR169  GLY170  VAL171  HIS172  ALA173  PHE181  PHE185  VAL186  ASP187 
 ARG188  GLN189  THR190  ALA191  GLN192  ALA193 

> <Gold.Protein.RotatedAtoms>
  -14.6493   18.3066   75.0039 H   0  0  0  0  0  0  0  0  0  0  0  0  # atno 3372 bound_to 414 
   -2.7186   21.0574   75.7213 H   0  0  0  0  0  0  0  0  0  0  0  0  # atno 3515 bound_to 339 
   -3.0109   18.4631   73.1468 H   0  0  0  0  0  0  0  0  0  0  0  0  # atno 3523 bound_to 346 
   -8.3518   25.0856   63.4712 H   0  0  0  0  0  0  0  0  0  0  0  0  # atno 3576 bound_to 185 
   -8.0805   28.3090   65.4834 H   0  0  0  0  0  0  0  0  0  0  0  0  # atno 3663 bound_to 154 
   -1.9827   23.5593   72.0687 H   0  0  0  0  0  0  0  0  0  0  0  0  # atno 3793 bound_to 171 
   -7.6666   23.1392   72.4301 H   0  0  0  0  0  0  0  0  0  0  0  0  # atno 3800 bound_to 178 
  -15.6297    7.3238   77.7904 H   0  0  0  0  0  0  0  0  0  0  0  0  # atno 3973 bound_to 1471
  -21.0507   12.5912   64.2167 H   0  0  0  0  0  0  0  0  0  0  0  0  # atno 4183 bound_to 1244
  -12.9791   15.1157   60.8845 H   0  0  0  0  0  0  0  0  0  0  0  0  # atno 4268 bound_to 1114
  -16.3928   19.5142   57.9661 H   0  0  0  0  0  0  0  0  0  0  0  0  # atno 4280 bound_to 1130
  -12.1843   15.4332   57.1681 H   0  0  0  0  0  0  0  0  0  0  0  0  # atno 4409 bound_to 924 
  -14.9879    8.4876   76.8515 LP  0  0  0  0  0  0  0  0  0  0  0  0  # atno 4696 bound_to 1471
  -15.4146    8.8203   78.3922 LP  0  0  0  0  0  0  0  0  0  0  0  0  # atno 4697 bound_to 1471
  -15.4720   17.1123   75.7421 LP  0  0  0  0  0  0  0  0  0  0  0  0  # atno 4731 bound_to 414 
  -13.9751   17.5150   76.2557 LP  0  0  0  0  0  0  0  0  0  0  0  0  # atno 4732 bound_to 414 
  -14.2104   16.0398   61.4117 LP  0  0  0  0  0  0  0  0  0  0  0  0  # atno 4733 bound_to 1114
  -12.7272   16.1932   62.0776 LP  0  0  0  0  0  0  0  0  0  0  0  0  # atno 4734 bound_to 1114
  -10.8322   15.0393   57.9833 LP  0  0  0  0  0  0  0  0  0  0  0  0  # atno 4763 bound_to 924 
  -10.8417   15.0124   56.3505 LP  0  0  0  0  0  0  0  0  0  0  0  0  # atno 4764 bound_to 924 
  -20.0841   13.9002   64.2010 LP  0  0  0  0  0  0  0  0  0  0  0  0  # atno 4771 bound_to 1244
  -20.2276   12.9714   62.8655 LP  0  0  0  0  0  0  0  0  0  0  0  0  # atno 4772 bound_to 1244
   -6.3134   23.9067   71.9525 LP  0  0  0  0  0  0  0  0  0  0  0  0  # atno 4775 bound_to 178 
   -6.6300   22.3960   71.4195 LP  0  0  0  0  0  0  0  0  0  0  0  0  # atno 4776 bound_to 178 
   -3.5229   24.0573   71.9023 LP  0  0  0  0  0  0  0  0  0  0  0  0  # atno 4779 bound_to 171 
   -2.4608   24.9517   72.7618 LP  0  0  0  0  0  0  0  0  0  0  0  0  # atno 4780 bound_to 171 
   -7.1466   26.1273   63.1393 LP  0  0  0  0  0  0  0  0  0  0  0  0  # atno 4783 bound_to 185 
   -8.4503   26.6258   63.9869 LP  0  0  0  0  0  0  0  0  0  0  0  0  # atno 4784 bound_to 185 
   -3.3496   16.9751   72.5818 LP  0  0  0  0  0  0  0  0  0  0  0  0  # atno 4785 bound_to 346 
   -1.8013   17.4126   72.8614 LP  0  0  0  0  0  0  0  0  0  0  0  0  # atno 4786 bound_to 346 
   -3.1413   22.2908   74.7476 LP  0  0  0  0  0  0  0  0  0  0  0  0  # atno 4787 bound_to 339 
   -3.6115   20.7679   74.3921 LP  0  0  0  0  0  0  0  0  0  0  0  0  # atno 4788 bound_to 339 
   -6.7000   29.1379   65.2483 LP  0  0  0  0  0  0  0  0  0  0  0  0  # atno 4797 bound_to 154 
   -8.1424   29.8573   64.9866 LP  0  0  0  0  0  0  0  0  0  0  0  0  # atno 4798 bound_to 154 

$$$$
