#       Name:                /Users/williammccorkindale/ml_physics/smi2wyck/notebooks/docking/mpro_fragments/prepared_Mpro-x2193.sdf
#       Creating user name   williammccorkindale
#       Creation time:       Tue Jun  7 14:44:34 2022


#       File generated by GOLD software.
#

@<TRIPOS>MOLECULE
/Users/williammccorkindale/ml_physics/smi2wyck/notebooks/docking/mpro_fragments/prepared_Mpro-x2193.sdf|gold_prepared_Mpro-x2193_m1|mol2|1|dock4
    33    34     1
_m1|mol2|1|dock4
NO_CHARGES


@<TRIPOS>ATOM
      1 ****       -13.6132   6.9067  71.5170 C.3            1 S1                 0.0000
      2 ****       -12.0215   7.6627  71.2543 S.o2           1 S1                 0.0000
      3 ****       -11.4054   7.1429  69.9865 O.2            1 S1                 0.0000
      4 ****       -11.0984   7.3535  72.4241 O.2            1 S1                 0.0000
      5 ****       -12.2611   9.3999  71.1936 C.ar           1 S1                 0.0000
      6 ****       -13.0244  10.0480  72.1395 C.ar           1 S1                 0.0000
      7 ****       -13.2182  11.4104  72.1000 C.ar           1 S1                 0.0000
      8 ****       -12.6563  12.1989  71.1084 C.ar           1 S1                 0.0000
      9 ****       -11.8937  11.5657  70.1607 C.ar           1 S1                 0.0000
     10 ****       -11.6999  10.1787  70.2055 C.ar           1 S1                 0.0000
     11 ****       -12.8289  13.5964  71.0655 N.pl3          1 S1                 0.0000
     12 ****       -13.5619  14.2777  72.0964 C.3            1 S1                 0.0000
     13 ****       -12.6693  15.3710  72.6684 C.3            1 S1                 0.0000
     14 ****       -12.1800  16.2056  71.6209 N.3            1 S1                 0.0000
     15 ****       -11.4228  15.4696  70.6228 C.3            1 S1                 0.0000
     16 ****       -12.3001  14.4091  69.9856 C.3            1 S1                 0.0000
     17 ****       -13.9903   6.4966  70.5420 H              1 S1                 0.0000
     18 ****       -14.3604   7.6215  71.9012 H              1 S1                 0.0000
     19 ****       -13.4937   6.0749  72.2444 H              1 S1                 0.0000
     20 ****       -13.4750   9.4321  72.9310 H              1 S1                 0.0000
     21 ****       -13.8308  11.8786  72.8653 H              1 S1                 0.0000
     22 ****       -11.4341  12.1555  69.3804 H              1 S1                 0.0000
     23 ****       -11.1021   9.7234  69.4525 H              1 S1                 0.0000
     24 ****       -14.3940  14.8315  71.5839 H              1 S1                 0.0000
     25 ****       -13.9644  13.6490  72.8861 H              1 S1                 0.0000
     26 ****       -11.8673  14.8608  73.2495 H              1 S1                 0.0000
     27 ****       -13.3201  15.9877  73.3218 H              1 S1                 0.0000
     28 ****       -11.5789  16.9625  71.9664 H              1 S1                 0.0000
     29 ****       -11.0845  16.2224  69.8678 H              1 S1                 0.0000
     30 ****       -10.5751  14.9450  71.1079 H              1 S1                 0.0000
     31 ****       -11.7350  13.8200  69.2709 H              1 S1                 0.0000
     32 ****       -13.1735  14.8944  69.4709 H              1 S1                 0.0000
     33 ****       -13.0052  16.5886  71.2057 LP             1 S1                 0.0000
@<TRIPOS>BOND
    1    1    2 1     
    2    2    3 2     
    3    2    4 2     
    4    2    5 1     
    5    5    6 ar    
    6    6    7 ar    
    7    7    8 ar    
    8    8    9 ar    
    9    9   10 ar    
   10    8   11 1     
   11   11   12 1     
   12   12   13 1     
   13   13   14 1     
   14   14   15 1     
   15   15   16 1     
   16   10    5 ar    
   17   16   11 1     
   18    1   17 1     
   19    1   18 1     
   20    1   19 1     
   21    6   20 1     
   22    7   21 1     
   23    9   22 1     
   24   10   23 1     
   25   12   24 1     
   26   12   25 1     
   27   13   26 1     
   28   13   27 1     
   29   14   28 1     
   30   15   29 1     
   31   15   30 1     
   32   16   31 1     
   33   16   32 1     
   34   14   33 1     
@<TRIPOS>SUBSTRUCTURE
      1 S1             1
@<TRIPOS>SET
LONE_PAIRS      STATIC     ATOMS    <user>   **** ""
3 3 4 33
DONOR_HYDROGENS      STATIC     ATOMS    <user>   **** ""
1 28
ATOM$BLUE        STATIC     ATOMS    COLORGROUP SYSTEM
3 3 4 33
ATOM$RED        STATIC     ATOMS    COLORGROUP SYSTEM
1 28
@<TRIPOS>COMMENT
> <Gold.Version>
2022.1.0

> <Gold.Id.Protein>
6LU7|6LU7_protein|mol2

> <Gold.Protein.RotatedTorsions>
[ 3973 1471 1470 1467 ] final -112.59 input   60.00 | X-H torsion
[ 3372  414  413  411 ] final  -11.22 input   60.00 | X-H torsion
[ 4268 1114 1113 1110 ] final  137.10 input   59.99 | X-H torsion
[ 4409  924  923  921 ] final  136.25 input   59.99 | X-H torsion
[ 4183 1244 1243 1241 ] final   -3.66 input   59.99 | X-H torsion
[ 3800  178  177  174 ] final  -13.82 input   60.00 | X-H torsion
[ 3793  171  170  167 ] final  104.89 input   60.00 | X-H torsion
[ 3576  185  184  181 ] final   47.68 input   60.00 | X-H torsion
[ 3523  346  345  342 ] final  -43.64 input   60.01 | X-H torsion
[ 3515  339  338  335 ] final -157.73 input   60.00 | X-H torsion
[ 3663  154  153  150 ] final  -64.09 input   60.00 | X-H torsion
[ 4280 1130 1129 1126 ] final   83.05 input   60.00 | X-H torsion

> <Gold.Protein.ActiveResidues>
 VAL20   THR21   CYS22   GLY23   THR24   THR25   THR26   LEU27   ASN28   PRO39  
 ARG40   HIS41   VAL42   CYS44   THR45   SER46   ASP48   MET49   LEU50   PRO52  
 TYR54   TYR118  ASN119  ILE136  GLY138  SER139  PHE140  LEU141  ASN142  GLY143 
 SER144  CYS145  GLY146  SER147  TYR161  HIS163  HIS164  MET165  GLU166  LEU167 
 PRO168  THR169  GLY170  VAL171  HIS172  ALA173  PHE181  PHE185  VAL186  ASP187 
 ARG188  GLN189  THR190  ALA191  GLN192  ALA193 

> <Gold.Protein.RotatedAtoms>
  -14.4373   18.3433   75.0980 H   0  0  0  0  0  0  0  0  0  0  0  0  # atno 3372 bound_to 414 
   -2.6429   21.5997   75.7044 H   0  0  0  0  0  0  0  0  0  0  0  0  # atno 3515 bound_to 339 
   -3.5834   17.3016   72.6834 H   0  0  0  0  0  0  0  0  0  0  0  0  # atno 3523 bound_to 346 
   -8.6022   26.4519   64.0183 H   0  0  0  0  0  0  0  0  0  0  0  0  # atno 3576 bound_to 185 
   -7.5353   28.2144   65.5258 H   0  0  0  0  0  0  0  0  0  0  0  0  # atno 3663 bound_to 154 
   -2.7168   23.3964   71.7479 H   0  0  0  0  0  0  0  0  0  0  0  0  # atno 3793 bound_to 171 
   -6.0945   23.0916   71.4164 H   0  0  0  0  0  0  0  0  0  0  0  0  # atno 3800 bound_to 178 
  -15.2327    9.0568   78.0579 H   0  0  0  0  0  0  0  0  0  0  0  0  # atno 3973 bound_to 1471
  -20.9929   12.7919   64.4383 H   0  0  0  0  0  0  0  0  0  0  0  0  # atno 4183 bound_to 1244
  -13.9912   15.4708   60.9009 H   0  0  0  0  0  0  0  0  0  0  0  0  # atno 4268 bound_to 1114
  -15.5463   19.4101   59.6312 H   0  0  0  0  0  0  0  0  0  0  0  0  # atno 4280 bound_to 1130
  -10.4294   14.9107   57.4421 H   0  0  0  0  0  0  0  0  0  0  0  0  # atno 4409 bound_to 924 
  -15.7152    7.5083   78.1897 LP  0  0  0  0  0  0  0  0  0  0  0  0  # atno 4696 bound_to 1471
  -15.0872    8.0541   76.7846 LP  0  0  0  0  0  0  0  0  0  0  0  0  # atno 4697 bound_to 1471
  -15.5443   17.2433   75.5590 LP  0  0  0  0  0  0  0  0  0  0  0  0  # atno 4731 bound_to 414 
  -14.1162   17.3471   76.3441 LP  0  0  0  0  0  0  0  0  0  0  0  0  # atno 4732 bound_to 414 
  -13.4803   16.4574   62.0898 LP  0  0  0  0  0  0  0  0  0  0  0  0  # atno 4733 bound_to 1114
  -12.4380   15.4179   61.3830 LP  0  0  0  0  0  0  0  0  0  0  0  0  # atno 4734 bound_to 1114
  -11.4951   15.2069   56.2485 LP  0  0  0  0  0  0  0  0  0  0  0  0  # atno 4763 bound_to 924 
  -11.9464   15.3710   57.8093 LP  0  0  0  0  0  0  0  0  0  0  0  0  # atno 4764 bound_to 924 
  -19.9507   13.9320   63.9267 LP  0  0  0  0  0  0  0  0  0  0  0  0  # atno 4771 bound_to 1244
  -20.4191   12.7375   62.9166 LP  0  0  0  0  0  0  0  0  0  0  0  0  # atno 4772 bound_to 1244
   -7.4730   22.4215   71.9631 LP  0  0  0  0  0  0  0  0  0  0  0  0  # atno 4775 bound_to 178 
   -7.0536   23.9291   72.4298 LP  0  0  0  0  0  0  0  0  0  0  0  0  # atno 4776 bound_to 178 
   -3.4103   24.7411   72.3469 LP  0  0  0  0  0  0  0  0  0  0  0  0  # atno 4779 bound_to 171 
   -1.8340   24.4318   72.6403 LP  0  0  0  0  0  0  0  0  0  0  0  0  # atno 4780 bound_to 171 
   -8.1589   25.0359   63.3503 LP  0  0  0  0  0  0  0  0  0  0  0  0  # atno 4783 bound_to 185 
   -7.1858   26.3413   63.2250 LP  0  0  0  0  0  0  0  0  0  0  0  0  # atno 4784 bound_to 185 
   -1.9743   17.0617   72.7214 LP  0  0  0  0  0  0  0  0  0  0  0  0  # atno 4785 bound_to 346 
   -2.6001   18.4958   73.1884 LP  0  0  0  0  0  0  0  0  0  0  0  0  # atno 4786 bound_to 346 
   -3.4338   22.0406   74.3524 LP  0  0  0  0  0  0  0  0  0  0  0  0  # atno 4787 bound_to 339 
   -3.3953   20.4719   74.8044 LP  0  0  0  0  0  0  0  0  0  0  0  0  # atno 4788 bound_to 339 
   -6.8848   29.6393   65.0844 LP  0  0  0  0  0  0  0  0  0  0  0  0  # atno 4797 bound_to 154 
   -8.5068   29.4511   65.1077 LP  0  0  0  0  0  0  0  0  0  0  0  0  # atno 4798 bound_to 154 

> <Gold.Score>
     Score     S(PLP)   S(hbond)     S(cho)   S(metal)  DE(clash)   DE(tors)     intcor
     47.38     -47.40       0.00       0.00       0.00       0.00       1.12       2.22

> <Gold.PLP.Fitness>
47.3843

> <Gold.PLP.PLP>
-47.3956

> <Gold.PLP.part.hbond>
0.0000

> <Gold.PLP.part.metal>
0.0000

> <Gold.PLP.part.buried>
-7.1513

> <Gold.PLP.part.nonpolar>
-41.4529

> <Gold.PLP.part.repulsive>
0.1905

> <Gold.PLP.ligand.clash>
0.0000

> <Gold.PLP.ligand.torsion>
1.1163

> <Gold.PLP.Chemscore.Hbond>
0.0000

> <Gold.PLP.Chemscore.CHOScore>
0.0000

> <Gold.PLP.Chemscore.Metal>
0.0000

> <Gold.PLP.Chemscore.Internal.Correction>
2.2214

