#       Name:                unknown
#       Creating user name   williammccorkindale
#       Creation time:       Tue Jun  7 14:55:38 2022


#       File generated by GOLD software.
#

@<TRIPOS>MOLECULE
unknown|prepared_Mpro-x0874|mol2|1|dock4
    28    29     1
SMALL
NO_CHARGES


@<TRIPOS>ATOM
      1 O1         -10.6058  11.5588  66.5244 O.2            1 RES1               0.0000
      2 C2          -9.8961  12.0428  65.6284 C.2            1 RES1               0.0000
      3 C3         -10.4665  12.6375  64.4412 C.3            1 RES1               0.0000
      4 C4         -11.4594  13.7036  64.5419 C.3            1 RES1               0.0000
      5 C5         -11.2790  14.7253  65.6156 C.2            1 RES1               0.0000
      6 C6         -11.5924  14.4143  66.9206 C.2            1 RES1               0.0000
      7 S7         -11.2136  15.8347  67.7867 S.3            1 RES1               0.0000
      8 C8         -10.6681  16.7906  66.4870 C.2            1 RES1               0.0000
      9 C9         -10.7993  15.9627  65.4027 C.2            1 RES1               0.0000
     10 C10        -12.7874  13.0038  64.6015 C.3            1 RES1               0.0000
     11 C11        -12.5990  12.0007  63.4544 C.3            1 RES1               0.0000
     12 C12        -11.2041  11.5085  63.6989 C.3            1 RES1               0.0000
     13 N13         -8.4880  12.0008  65.7952 N.am           1 RES1               0.0000
     14 H14         -9.6371  12.9955  63.7419 H              1 RES1               0.0000
     15 H15        -11.4443  14.2221  63.5304 H              1 RES1               0.0000
     16 H16        -11.9962  13.4596  67.3057 H              1 RES1               0.0000
     17 H17        -10.3007  17.8300  66.5359 H              1 RES1               0.0000
     18 H18        -10.4863  16.3792  64.4123 H              1 RES1               0.0000
     19 H19        -13.6504  13.6615  64.4181 H              1 RES1               0.0000
     20 H20        -12.9637  12.4874  65.5580 H              1 RES1               0.0000
     21 H21        -13.3617  11.2211  63.4581 H              1 RES1               0.0000
     22 H22        -12.5797  12.6075  62.5272 H              1 RES1               0.0000
     23 H23        -11.2754  10.5904  64.3073 H              1 RES1               0.0000
     24 H24        -10.6730  11.2441  62.7620 H              1 RES1               0.0000
     25 H25         -8.0293  11.5782  66.6419 H              1 RES1               0.0000
     26 H26         -7.8345  12.3901  65.0802 H              1 RES1               0.0000
     27 ****       -11.6018  11.5737  66.4361 LP             1 RES1               0.0000
     28 ****       -10.1817  11.1541  67.3345 LP             1 RES1               0.0000
@<TRIPOS>BOND
    1    1    2 2     
    2    2    3 1     
    3    3    4 1     
    4    4    5 1     
    5    5    6 2     
    6    6    7 1     
    7    7    8 1     
    8    8    9 2     
    9    4   10 1     
   10   10   11 1     
   11   11   12 1     
   12    2   13 am    
   13   12    3 1     
   14    9    5 1     
   15    3   14 1     
   16    4   15 1     
   17    6   16 1     
   18    8   17 1     
   19    9   18 1     
   20   10   19 1     
   21   10   20 1     
   22   11   21 1     
   23   11   22 1     
   24   12   23 1     
   25   12   24 1     
   26   13   25 1     
   27   13   26 1     
   28    1   27 1     
   29    1   28 1     
@<TRIPOS>SUBSTRUCTURE
      1 RES1           1
@<TRIPOS>SET
LONE_PAIRS      STATIC     ATOMS    <user>   **** ""
2 27 28
DONOR_HYDROGENS      STATIC     ATOMS    <user>   **** ""
2 25 26
ATOM$BLUE        STATIC     ATOMS    COLORGROUP SYSTEM
2 27 28
ATOM$RED        STATIC     ATOMS    COLORGROUP SYSTEM
2 25 26
@<TRIPOS>COMMENT
> <Gold.Version>
2022.1.0

> <Gold.Id.Protein>
6LU7|6LU7_protein|mol2

> <Gold.Protein.RotatedTorsions>
[ 3973 1471 1470 1467 ] final   87.67 input   60.00 | X-H torsion
[ 3372  414  413  411 ] final  148.50 input   60.00 | X-H torsion
[ 4268 1114 1113 1110 ] final -138.22 input   59.99 | X-H torsion
[ 4409  924  923  921 ] final   -3.50 input   59.99 | X-H torsion
[ 4183 1244 1243 1241 ] final    8.86 input   59.99 | X-H torsion
[ 3800  178  177  174 ] final  -74.12 input   60.00 | X-H torsion
[ 3793  171  170  167 ] final   80.01 input   60.00 | X-H torsion
[ 3576  185  184  181 ] final  -22.16 input   60.00 | X-H torsion
[ 3523  346  345  342 ] final   11.68 input   60.01 | X-H torsion
[ 3515  339  338  335 ] final  -62.24 input   60.00 | X-H torsion
[ 3663  154  153  150 ] final   56.41 input   60.00 | X-H torsion
[ 4280 1130 1129 1126 ] final -101.44 input   60.00 | X-H torsion

> <Gold.Protein.ActiveResidues>
 VAL20   THR21   CYS22   GLY23   THR24   THR25   THR26   LEU27   ASN28   PRO39  
 ARG40   HIS41   VAL42   CYS44   THR45   SER46   ASP48   MET49   LEU50   PRO52  
 TYR54   TYR118  ASN119  ILE136  GLY138  SER139  PHE140  LEU141  ASN142  GLY143 
 SER144  CYS145  GLY146  SER147  TYR161  HIS163  HIS164  MET165  GLU166  LEU167 
 PRO168  THR169  GLY170  VAL171  HIS172  ALA173  PHE181  PHE185  VAL186  ASP187 
 ARG188  GLN189  THR190  ALA191  GLN192  ALA193 

> <Gold.Protein.RotatedAtoms>
  -14.6612   17.0150   76.3561 H   0  0  0  0  0  0  0  0  0  0  0  0  # atno 3372 bound_to 414 
   -3.1846   20.4545   75.1427 H   0  0  0  0  0  0  0  0  0  0  0  0  # atno 3515 bound_to 339 
   -3.5069   18.1143   72.9820 H   0  0  0  0  0  0  0  0  0  0  0  0  # atno 3523 bound_to 346 
   -8.7201   25.4163   63.7680 H   0  0  0  0  0  0  0  0  0  0  0  0  # atno 3576 bound_to 185 
   -8.4975   29.4565   65.1085 H   0  0  0  0  0  0  0  0  0  0  0  0  # atno 3663 bound_to 154 
   -3.0911   23.5445   71.7230 H   0  0  0  0  0  0  0  0  0  0  0  0  # atno 3793 bound_to 171 
   -6.6960   22.3692   71.4451 H   0  0  0  0  0  0  0  0  0  0  0  0  # atno 3800 bound_to 178 
  -15.5719    7.3034   77.6020 H   0  0  0  0  0  0  0  0  0  0  0  0  # atno 3973 bound_to 1471
  -21.0384   12.6520   64.2967 H   0  0  0  0  0  0  0  0  0  0  0  0  # atno 4183 bound_to 1244
  -12.7731   15.1602   61.0006 H   0  0  0  0  0  0  0  0  0  0  0  0  # atno 4268 bound_to 1114
  -16.3931   19.5158   57.9663 H   0  0  0  0  0  0  0  0  0  0  0  0  # atno 4280 bound_to 1130
  -11.7758   15.2960   56.3794 H   0  0  0  0  0  0  0  0  0  0  0  0  # atno 4409 bound_to 924 
  -14.9693    8.6638   76.9431 LP  0  0  0  0  0  0  0  0  0  0  0  0  # atno 4696 bound_to 1471
  -15.4915    8.6645   78.4903 LP  0  0  0  0  0  0  0  0  0  0  0  0  # atno 4697 bound_to 1471
  -13.9686   18.2232   75.5143 LP  0  0  0  0  0  0  0  0  0  0  0  0  # atno 4731 bound_to 414 
  -15.4665   17.7048   75.1218 LP  0  0  0  0  0  0  0  0  0  0  0  0  # atno 4732 bound_to 414 
  -14.2173   15.8718   61.2373 LP  0  0  0  0  0  0  0  0  0  0  0  0  # atno 4733 bound_to 1114
  -12.9278   16.3165   62.1350 LP  0  0  0  0  0  0  0  0  0  0  0  0  # atno 4734 bound_to 1114
  -11.6987   15.3001   58.0048 LP  0  0  0  0  0  0  0  0  0  0  0  0  # atno 4763 bound_to 924 
  -10.3867   14.8897   57.1233 LP  0  0  0  0  0  0  0  0  0  0  0  0  # atno 4764 bound_to 924 
  -20.0348   13.9198   64.1140 LP  0  0  0  0  0  0  0  0  0  0  0  0  # atno 4771 bound_to 1244
  -20.2892   12.8906   62.8720 LP  0  0  0  0  0  0  0  0  0  0  0  0  # atno 4772 bound_to 1244
   -7.6538   23.2082   72.4584 LP  0  0  0  0  0  0  0  0  0  0  0  0  # atno 4775 bound_to 178 
   -6.2671   23.8700   71.9055 LP  0  0  0  0  0  0  0  0  0  0  0  0  # atno 4776 bound_to 178 
   -3.1254   24.9429   72.5545 LP  0  0  0  0  0  0  0  0  0  0  0  0  # atno 4779 bound_to 171 
   -1.7419   24.0809   72.4577 LP  0  0  0  0  0  0  0  0  0  0  0  0  # atno 4780 bound_to 171 
   -7.2736   25.5692   63.0384 LP  0  0  0  0  0  0  0  0  0  0  0  0  # atno 4783 bound_to 185 
   -7.9524   26.8509   63.7889 LP  0  0  0  0  0  0  0  0  0  0  0  0  # atno 4784 bound_to 185 
   -2.7658   16.7343   72.5411 LP  0  0  0  0  0  0  0  0  0  0  0  0  # atno 4785 bound_to 346 
   -1.8856   18.0048   73.0680 LP  0  0  0  0  0  0  0  0  0  0  0  0  # atno 4786 bound_to 346 
   -2.6932   21.9561   75.5323 LP  0  0  0  0  0  0  0  0  0  0  0  0  # atno 4787 bound_to 339 
   -3.5903   21.7098   74.1902 LP  0  0  0  0  0  0  0  0  0  0  0  0  # atno 4788 bound_to 339 
   -7.5426   28.2066   65.5258 LP  0  0  0  0  0  0  0  0  0  0  0  0  # atno 4797 bound_to 154 
   -6.8799   29.6329   65.0866 LP  0  0  0  0  0  0  0  0  0  0  0  0  # atno 4798 bound_to 154 

> <Gold.Score>
     Score     S(PLP)   S(hbond)     S(cho)   S(metal)  DE(clash)   DE(tors)     intcor
     35.34     -33.19       1.00       0.00       0.00       0.00       0.43       0.02

> <Gold.PLP.Fitness>
35.3418

> <Gold.PLP.PLP>
-33.1883

> <Gold.PLP.part.hbond>
-1.0000

> <Gold.PLP.part.metal>
0.0000

> <Gold.PLP.part.buried>
-4.5850

> <Gold.PLP.part.nonpolar>
-27.8980

> <Gold.PLP.part.repulsive>
0.0490

> <Gold.PLP.ligand.clash>
0.0000

> <Gold.PLP.ligand.torsion>
0.4323

> <Gold.PLP.Chemscore.Hbond>
1.0000

> <Gold.PLP.Chemscore.CHOScore>
0.0000

> <Gold.PLP.Chemscore.Metal>
0.0000

> <Gold.Chemscore.Hbonds>
donor molecule, donor type, donor heavy atom, donor atom, acceptor molecule, acceptor atom, score
      L1  H    13    26       P1  1103  1.00

> <Gold.PLP.Chemscore.Internal.Correction>
0.0182

