#       Name:                unknown
#       Creating user name   williammccorkindale
#       Creation time:       Tue Jun  7 14:55:42 2022


#       File generated by GOLD software.
#

@<TRIPOS>MOLECULE
unknown|prepared_Mpro-x0387|mol2|1|dock5
    31    32     1
SMALL
NO_CHARGES


@<TRIPOS>ATOM
      1 O1         -12.4314   7.7224  70.5070 O.3            1 RES1               0.0000
      2 C2         -12.3377   8.6530  71.5395 C.3            1 RES1               0.0000
      3 C3         -13.6017   9.4634  71.5441 C.3            1 RES1               0.0000
      4 C4         -13.4160  10.8865  71.9612 C.3            1 RES1               0.0000
      5 N5         -12.2976  11.5769  71.4169 N.3            1 RES1               0.0000
      6 C6         -12.6478  12.7275  70.6447 C.3            1 RES1               0.0000
      7 C7         -13.0017  13.9402  71.4716 C.2            1 RES1               0.0000
      8 C8         -14.2381  14.3530  71.7487 C.2            1 RES1               0.0000
      9 C9         -14.3983  15.4686  72.5040 C.2            1 RES1               0.0000
     10 S10        -12.7736  15.9411  72.8275 S.3            1 RES1               0.0000
     11 C11        -11.9666  14.6952  71.9853 C.2            1 RES1               0.0000
     12 C12        -11.5910  10.6949  70.5071 C.3            1 RES1               0.0000
     13 C13        -11.1127   9.5048  71.3056 C.3            1 RES1               0.0000
     14 H14        -13.2116   7.9248  69.8985 H              1 RES1               0.0000
     15 H15        -12.1846   8.0819  72.4763 H              1 RES1               0.0000
     16 H16        -14.0971   9.4366  70.5526 H              1 RES1               0.0000
     17 H17        -14.2996   8.9777  72.2571 H              1 RES1               0.0000
     18 H18        -13.3401  10.9221  73.0891 H              1 RES1               0.0000
     19 H19        -14.3315  11.4661  71.7220 H              1 RES1               0.0000
     20 H20        -11.8526  13.0025  69.9513 H              1 RES1               0.0000
     21 H21        -13.5296  12.4292  70.0055 H              1 RES1               0.0000
     22 H22        -15.1466  13.8239  71.3932 H              1 RES1               0.0000
     23 H23        -15.3194  15.9599  72.8348 H              1 RES1               0.0000
     24 H24        -10.8800  14.5539  71.8919 H              1 RES1               0.0000
     25 H25        -12.2661  10.3013  69.7185 H              1 RES1               0.0000
     26 H26        -10.7015  11.1593  70.0539 H              1 RES1               0.0000
     27 H27        -10.7402   9.8910  72.2722 H              1 RES1               0.0000
     28 H28        -10.3285   8.9207  70.7849 H              1 RES1               0.0000
     29 ****       -12.5533   6.8111  70.9003 LP             1 RES1               0.0000
     30 ****       -11.5870   7.7441  69.9717 LP             1 RES1               0.0000
     31 ****       -11.7520  11.8658  72.2036 LP             1 RES1               0.0000
@<TRIPOS>BOND
    1    1    2 1     
    2    2    3 1     
    3    3    4 1     
    4    4    5 1     
    5    5    6 1     
    6    6    7 1     
    7    7    8 1     
    8    8    9 2     
    9    9   10 1     
   10   10   11 1     
   11    5   12 1     
   12   12   13 1     
   13   13    2 1     
   14    7   11 2     
   15    1   14 1     
   16    2   15 1     
   17    3   16 1     
   18    3   17 1     
   19    4   18 1     
   20    4   19 1     
   21    6   20 1     
   22    6   21 1     
   23    8   22 1     
   24    9   23 1     
   25   11   24 1     
   26   12   25 1     
   27   12   26 1     
   28   13   27 1     
   29   13   28 1     
   30    1   29 1     
   31    1   30 1     
   32    5   31 1     
@<TRIPOS>SUBSTRUCTURE
      1 RES1           1
@<TRIPOS>SET
LONE_PAIRS      STATIC     ATOMS    <user>   **** ""
3 29 30 31
DONOR_HYDROGENS      STATIC     ATOMS    <user>   **** ""
1 14
ATOM$BLUE        STATIC     ATOMS    COLORGROUP SYSTEM
3 29 30 31
ATOM$RED        STATIC     ATOMS    COLORGROUP SYSTEM
1 14
@<TRIPOS>COMMENT
> <Gold.Version>
2022.1.0

> <Gold.Id.Protein>
6LU7|6LU7_protein|mol2

> <Gold.Protein.RotatedTorsions>
[ 3973 1471 1470 1467 ] final   80.42 input   60.00 | X-H torsion
[ 3372  414  413  411 ] final  166.87 input   60.00 | X-H torsion
[ 4268 1114 1113 1110 ] final -139.36 input   59.99 | X-H torsion
[ 4409  924  923  921 ] final   54.64 input   59.99 | X-H torsion
[ 4183 1244 1243 1241 ] final -162.44 input   59.99 | X-H torsion
[ 3800  178  177  174 ] final  164.07 input   60.00 | X-H torsion
[ 3793  171  170  167 ] final  114.24 input   60.00 | X-H torsion
[ 3576  185  184  181 ] final -138.96 input   60.00 | X-H torsion
[ 3523  346  345  342 ] final -166.30 input   60.01 | X-H torsion
[ 3515  339  338  335 ] final  -87.72 input   60.00 | X-H torsion
[ 3663  154  153  150 ] final  153.75 input   60.00 | X-H torsion
[ 4280 1130 1129 1126 ] final  152.71 input   60.00 | X-H torsion

> <Gold.Protein.ActiveResidues>
 VAL20   THR21   CYS22   GLY23   THR24   THR25   THR26   LEU27   ASN28   PRO39  
 ARG40   HIS41   VAL42   CYS44   THR45   SER46   ASP48   MET49   LEU50   PRO52  
 TYR54   TYR118  ASN119  ILE136  GLY138  SER139  PHE140  LEU141  ASN142  GLY143 
 SER144  CYS145  GLY146  SER147  TYR161  HIS163  HIS164  MET165  GLU166  LEU167 
 PRO168  THR169  GLY170  VAL171  HIS172  ALA173  PHE181  PHE185  VAL186  ASP187 
 ARG188  GLN189  THR190  ALA191  GLN192  ALA193 

> <Gold.Protein.RotatedAtoms>
  -14.9337   16.9536   76.2501 H   0  0  0  0  0  0  0  0  0  0  0  0  # atno 3372 bound_to 414 
   -2.9607   20.6044   75.4556 H   0  0  0  0  0  0  0  0  0  0  0  0  # atno 3515 bound_to 339 
   -1.9542   17.0971   72.7382 H   0  0  0  0  0  0  0  0  0  0  0  0  # atno 3523 bound_to 346 
   -7.3035   25.5257   63.0440 H   0  0  0  0  0  0  0  0  0  0  0  0  # atno 3576 bound_to 185 
   -7.1560   29.8655   65.0086 H   0  0  0  0  0  0  0  0  0  0  0  0  # atno 3663 bound_to 154 
   -2.5691   23.3782   71.7818 H   0  0  0  0  0  0  0  0  0  0  0  0  # atno 3793 bound_to 171 
   -7.6414   23.2359   72.4611 H   0  0  0  0  0  0  0  0  0  0  0  0  # atno 3800 bound_to 178 
  -15.5323    7.3106   77.4908 H   0  0  0  0  0  0  0  0  0  0  0  0  # atno 3973 bound_to 1471
  -19.8597   13.7391   63.3404 H   0  0  0  0  0  0  0  0  0  0  0  0  # atno 4183 bound_to 1244
  -12.7880   15.1552   60.9904 H   0  0  0  0  0  0  0  0  0  0  0  0  # atno 4268 bound_to 1114
  -15.6847   18.6174   58.9268 H   0  0  0  0  0  0  0  0  0  0  0  0  # atno 4280 bound_to 1130
  -10.9066   15.0337   56.3222 H   0  0  0  0  0  0  0  0  0  0  0  0  # atno 4409 bound_to 924 
  -14.9662    8.7597   77.0137 LP  0  0  0  0  0  0  0  0  0  0  0  0  # atno 4696 bound_to 1471
  -15.5345    8.5614   78.5317 LP  0  0  0  0  0  0  0  0  0  0  0  0  # atno 4697 bound_to 1471
  -13.8590   18.0672   75.7472 LP  0  0  0  0  0  0  0  0  0  0  0  0  # atno 4731 bound_to 414 
  -15.3016   17.9227   74.9957 LP  0  0  0  0  0  0  0  0  0  0  0  0  # atno 4732 bound_to 414 
  -14.2189   15.8851   61.2504 LP  0  0  0  0  0  0  0  0  0  0  0  0  # atno 4733 bound_to 1114
  -12.9112   16.3081   62.1321 LP  0  0  0  0  0  0  0  0  0  0  0  0  # atno 4734 bound_to 1114
  -12.1881   15.4334   57.2419 LP  0  0  0  0  0  0  0  0  0  0  0  0  # atno 4763 bound_to 924 
  -10.7727   15.0207   57.9439 LP  0  0  0  0  0  0  0  0  0  0  0  0  # atno 4764 bound_to 924 
  -20.8046   12.4153   63.2901 LP  0  0  0  0  0  0  0  0  0  0  0  0  # atno 4771 bound_to 1244
  -20.7065   13.3003   64.6589 LP  0  0  0  0  0  0  0  0  0  0  0  0  # atno 4772 bound_to 1244
   -6.2498   23.8541   71.8870 LP  0  0  0  0  0  0  0  0  0  0  0  0  # atno 4775 bound_to 178 
   -6.7190   22.3512   71.4539 LP  0  0  0  0  0  0  0  0  0  0  0  0  # atno 4776 bound_to 178 
   -3.4832   24.6360   72.2617 LP  0  0  0  0  0  0  0  0  0  0  0  0  # atno 4779 bound_to 171 
   -1.9098   24.5554   72.6914 LP  0  0  0  0  0  0  0  0  0  0  0  0  # atno 4780 bound_to 171 
   -7.9056   26.8545   63.7649 LP  0  0  0  0  0  0  0  0  0  0  0  0  # atno 4783 bound_to 185 
   -8.7471   25.4553   63.7916 LP  0  0  0  0  0  0  0  0  0  0  0  0  # atno 4784 bound_to 185 
   -2.6435   18.5013   73.1870 LP  0  0  0  0  0  0  0  0  0  0  0  0  # atno 4785 bound_to 346 
   -3.5716   17.2621   72.6676 LP  0  0  0  0  0  0  0  0  0  0  0  0  # atno 4786 bound_to 346 
   -2.8394   22.2127   75.2395 LP  0  0  0  0  0  0  0  0  0  0  0  0  # atno 4787 bound_to 339 
   -3.6696   21.3022   74.1678 LP  0  0  0  0  0  0  0  0  0  0  0  0  # atno 4788 bound_to 339 
   -8.5844   29.1133   65.2135 LP  0  0  0  0  0  0  0  0  0  0  0  0  # atno 4797 bound_to 154 
   -7.1892   28.3143   65.4995 LP  0  0  0  0  0  0  0  0  0  0  0  0  # atno 4798 bound_to 154 

> <Gold.Score>
     Score     S(PLP)   S(hbond)     S(cho)   S(metal)  DE(clash)   DE(tors)     intcor
     45.15     -40.08       0.99       0.99       0.00       0.00       0.44       0.00

> <Gold.PLP.Fitness>
45.1527

> <Gold.PLP.PLP>
-40.0804

> <Gold.PLP.part.hbond>
-1.0000

> <Gold.PLP.part.metal>
0.0000

> <Gold.PLP.part.buried>
-4.2764

> <Gold.PLP.part.nonpolar>
-36.1209

> <Gold.PLP.part.repulsive>
0.1237

> <Gold.PLP.ligand.clash>
0.0000

> <Gold.PLP.ligand.torsion>
0.4407

> <Gold.PLP.Chemscore.Hbond>
0.9920

> <Gold.PLP.Chemscore.CHOScore>
0.9917

> <Gold.PLP.Chemscore.Metal>
0.0000

> <Gold.Chemscore.Hbonds>
donor molecule, donor type, donor heavy atom, donor atom, acceptor molecule, acceptor atom, score
      L1  H     1    14       P1  1284  0.99
      L1  C    11    24       P1  1464  0.99

> <Gold.PLP.Chemscore.Internal.Correction>
0.0025

