#       Name:                unknown
#       Creating user name   williammccorkindale
#       Creation time:       Tue Jun  7 14:55:37 2022


#       File generated by GOLD software.
#

@<TRIPOS>MOLECULE
unknown|prepared_Mpro-x0161|mol2|1|dock3
    26    26     1
SMALL
NO_CHARGES


@<TRIPOS>ATOM
      1 C1         -12.3100  15.8799  73.7966 C.3            1 RES1               0.0000
      2 O2         -12.2031  16.1888  72.4314 O.3            1 RES1               0.0000
      3 C3         -12.4691  15.2097  71.4933 C.2            1 RES1               0.0000
      4 O4         -13.1882  14.2461  71.8499 O.2            1 RES1               0.0000
      5 C5         -11.9250  15.3024  70.1295 C.ar           1 RES1               0.0000
      6 C6         -11.1940  16.3908  69.7176 C.ar           1 RES1               0.0000
      7 C7         -10.6754  16.4811  68.4211 C.ar           1 RES1               0.0000
      8 C8         -10.8970  15.4576  67.5244 C.ar           1 RES1               0.0000
      9 C9         -11.6340  14.3816  67.9713 C.ar           1 RES1               0.0000
     10 C10        -12.1460  14.2823  69.2365 C.ar           1 RES1               0.0000
     11 S11        -10.2657  15.5359  65.8997 S.o2           1 RES1               0.0000
     12 O12        -11.4383  15.6114  64.9664 O.2            1 RES1               0.0000
     13 O13         -9.3819  16.7583  65.7616 O.2            1 RES1               0.0000
     14 N14         -9.3026  14.1722  65.5011 N.3            1 RES1               0.0000
     15 H15        -11.8647  16.6578  74.4493 H              1 RES1               0.0000
     16 H16        -11.8780  14.9053  74.0709 H              1 RES1               0.0000
     17 H17        -13.4075  15.8034  74.0205 H              1 RES1               0.0000
     18 H18        -11.0168  17.1971  70.4167 H              1 RES1               0.0000
     19 H19        -10.1031  17.3239  68.0846 H              1 RES1               0.0000
     20 H20        -11.8168  13.5692  67.2791 H              1 RES1               0.0000
     21 H21        -12.7283  13.4261  69.5811 H              1 RES1               0.0000
     22 H22         -9.9040  13.4116  65.1226 H              1 RES1               0.0000
     23 H23         -8.5492  14.3772  64.8262 H              1 RES1               0.0000
     24 ****       -13.5454  14.2073  72.7831 LP             1 RES1               0.0000
     25 ****       -13.4043  13.5166  71.2010 LP             1 RES1               0.0000
     26 ****        -8.8598  13.8879  66.3515 LP             1 RES1               0.0000
@<TRIPOS>BOND
    1    1    2 1     
    2    2    3 1     
    3    3    4 2     
    4    3    5 1     
    5    5    6 ar    
    6    6    7 ar    
    7    7    8 ar    
    8    8    9 ar    
    9    9   10 ar    
   10    8   11 1     
   11   11   12 2     
   12   11   13 2     
   13   11   14 1     
   14    5   10 ar    
   15    1   15 1     
   16    1   16 1     
   17    1   17 1     
   18    6   18 1     
   19    7   19 1     
   20    9   20 1     
   21   10   21 1     
   22   14   22 1     
   23   14   23 1     
   24    4   24 1     
   25    4   25 1     
   26   14   26 1     
@<TRIPOS>SUBSTRUCTURE
      1 RES1           1
@<TRIPOS>SET
LONE_PAIRS      STATIC     ATOMS    <user>   **** ""
5 24 25 12 13 26
DONOR_HYDROGENS      STATIC     ATOMS    <user>   **** ""
2 22 23
ATOM$BLUE        STATIC     ATOMS    COLORGROUP SYSTEM
5 24 25 12 13 26
ATOM$RED        STATIC     ATOMS    COLORGROUP SYSTEM
2 22 23
@<TRIPOS>COMMENT
> <Gold.Version>
2022.1.0

> <Gold.Id.Protein>
6LU7|6LU7_protein|mol2

> <Gold.Protein.RotatedTorsions>
[ 3973 1471 1470 1467 ] final -124.76 input   60.00 | X-H torsion
[ 3372  414  413  411 ] final  148.04 input   60.00 | X-H torsion
[ 4268 1114 1113 1110 ] final  114.50 input   59.99 | X-H torsion
[ 4409  924  923  921 ] final  117.08 input   59.99 | X-H torsion
[ 4183 1244 1243 1241 ] final -174.95 input   59.99 | X-H torsion
[ 3800  178  177  174 ] final   -0.49 input   60.00 | X-H torsion
[ 3793  171  170  167 ] final  -16.36 input   60.00 | X-H torsion
[ 3576  185  184  181 ] final   -4.13 input   60.00 | X-H torsion
[ 3523  346  345  342 ] final   60.11 input   60.01 | X-H torsion
[ 3515  339  338  335 ] final  -85.61 input   60.00 | X-H torsion
[ 3663  154  153  150 ] final  155.61 input   60.00 | X-H torsion
[ 4280 1130 1129 1126 ] final -163.69 input   60.00 | X-H torsion

> <Gold.Protein.ActiveResidues>
 VAL20   THR21   CYS22   GLY23   THR24   THR25   THR26   LEU27   ASN28   PRO39  
 ARG40   HIS41   VAL42   CYS44   THR45   SER46   ASP48   MET49   LEU50   PRO52  
 TYR54   TYR118  ASN119  ILE136  GLY138  SER139  PHE140  LEU141  ASN142  GLY143 
 SER144  CYS145  GLY146  SER147  TYR161  HIS163  HIS164  MET165  GLU166  LEU167 
 PRO168  THR169  GLY170  VAL171  HIS172  ALA173  PHE181  PHE185  VAL186  ASP187 
 ARG188  GLN189  THR190  ALA191  GLN192  ALA193 

> <Gold.Protein.RotatedAtoms>
  -14.6543   17.0174   76.3579 H   0  0  0  0  0  0  0  0  0  0  0  0  # atno 3372 bound_to 414 
   -2.9783   20.5857   75.4327 H   0  0  0  0  0  0  0  0  0  0  0  0  # atno 3515 bound_to 339 
   -2.8651   18.4924   73.1688 H   0  0  0  0  0  0  0  0  0  0  0  0  # atno 3523 bound_to 346 
   -8.8043   25.6696   63.8897 H   0  0  0  0  0  0  0  0  0  0  0  0  # atno 3576 bound_to 185 
   -7.1303   29.8502   65.0141 H   0  0  0  0  0  0  0  0  0  0  0  0  # atno 3663 bound_to 154 
   -3.3931   24.7512   72.3555 H   0  0  0  0  0  0  0  0  0  0  0  0  # atno 3793 bound_to 171 
   -6.0600   23.2923   71.4920 H   0  0  0  0  0  0  0  0  0  0  0  0  # atno 3800 bound_to 178 
  -15.3110    8.9718   78.2192 H   0  0  0  0  0  0  0  0  0  0  0  0  # atno 3973 bound_to 1471
  -19.8861   13.6154   63.1805 H   0  0  0  0  0  0  0  0  0  0  0  0  # atno 4183 bound_to 1244
  -14.1682   15.7238   61.0992 H   0  0  0  0  0  0  0  0  0  0  0  0  # atno 4268 bound_to 1114
  -16.0068   18.7003   58.3162 H   0  0  0  0  0  0  0  0  0  0  0  0  # atno 4280 bound_to 1130
  -10.3921   14.8938   57.1331 H   0  0  0  0  0  0  0  0  0  0  0  0  # atno 4409 bound_to 924 
  -15.6890    7.4012   78.0230 LP  0  0  0  0  0  0  0  0  0  0  0  0  # atno 4696 bound_to 1471
  -15.0345    8.2468   76.7888 LP  0  0  0  0  0  0  0  0  0  0  0  0  # atno 4697 bound_to 1471
  -13.9723   18.2264   75.5086 LP  0  0  0  0  0  0  0  0  0  0  0  0  # atno 4731 bound_to 414 
  -15.4697   17.6992   75.1257 LP  0  0  0  0  0  0  0  0  0  0  0  0  # atno 4732 bound_to 414 
  -13.1210   16.3946   62.1487 LP  0  0  0  0  0  0  0  0  0  0  0  0  # atno 4733 bound_to 1114
  -12.6192   15.2260   61.1243 LP  0  0  0  0  0  0  0  0  0  0  0  0  # atno 4734 bound_to 1114
  -11.7722   15.2924   56.3687 LP  0  0  0  0  0  0  0  0  0  0  0  0  # atno 4763 bound_to 924 
  -11.7068   15.3025   58.0004 LP  0  0  0  0  0  0  0  0  0  0  0  0  # atno 4764 bound_to 924 
  -20.9029   12.3775   63.4664 LP  0  0  0  0  0  0  0  0  0  0  0  0  # atno 4771 bound_to 1244
  -20.5816   13.4627   64.6437 LP  0  0  0  0  0  0  0  0  0  0  0  0  # atno 4772 bound_to 1244
   -7.3283   22.3294   71.8273 LP  0  0  0  0  0  0  0  0  0  0  0  0  # atno 4775 bound_to 178 
   -7.2330   23.8191   72.4895 LP  0  0  0  0  0  0  0  0  0  0  0  0  # atno 4776 bound_to 178 
   -1.8254   24.4146   72.6326 LP  0  0  0  0  0  0  0  0  0  0  0  0  # atno 4779 bound_to 171 
   -2.7377   23.3938   71.7426 LP  0  0  0  0  0  0  0  0  0  0  0  0  # atno 4780 bound_to 171 
   -7.4468   25.3307   63.0588 LP  0  0  0  0  0  0  0  0  0  0  0  0  # atno 4783 bound_to 185 
   -7.6943   26.8343   63.6459 LP  0  0  0  0  0  0  0  0  0  0  0  0  # atno 4784 bound_to 185 
   -3.4534   17.0811   72.6117 LP  0  0  0  0  0  0  0  0  0  0  0  0  # atno 4785 bound_to 346 
   -1.8443   17.2772   72.8092 LP  0  0  0  0  0  0  0  0  0  0  0  0  # atno 4786 bound_to 346 
   -2.8244   22.1971   75.2667 LP  0  0  0  0  0  0  0  0  0  0  0  0  # atno 4787 bound_to 339 
   -3.6668   21.3366   74.1637 LP  0  0  0  0  0  0  0  0  0  0  0  0  # atno 4788 bound_to 339 
   -8.5832   29.1424   65.2042 LP  0  0  0  0  0  0  0  0  0  0  0  0  # atno 4797 bound_to 154 
   -7.2163   28.3006   65.5032 LP  0  0  0  0  0  0  0  0  0  0  0  0  # atno 4798 bound_to 154 

> <Gold.Score>
     Score     S(PLP)   S(hbond)     S(cho)   S(metal)  DE(clash)   DE(tors)     intcor
     36.15     -31.47       1.79       0.00       0.00       0.00       1.46       2.23

> <Gold.PLP.Fitness>
36.1548

> <Gold.PLP.PLP>
-31.4706

> <Gold.PLP.part.hbond>
-1.9447

> <Gold.PLP.part.metal>
0.0000

> <Gold.PLP.part.buried>
-7.0669

> <Gold.PLP.part.nonpolar>
-23.9042

> <Gold.PLP.part.repulsive>
0.2969

> <Gold.PLP.ligand.clash>
0.0000

> <Gold.PLP.ligand.torsion>
1.4574

> <Gold.PLP.Chemscore.Hbond>
1.7913

> <Gold.PLP.Chemscore.CHOScore>
0.0000

> <Gold.PLP.Chemscore.Metal>
0.0000

> <Gold.Chemscore.Hbonds>
donor molecule, donor type, donor heavy atom, donor atom, acceptor molecule, acceptor atom, score
      L1  H    14    23       P1  1103  0.80
      P1  H  1105  4261       L1    13  0.99

> <Gold.PLP.Chemscore.Internal.Correction>
2.2252

