#       Name:                unknown
#       Creating user name   williammccorkindale
#       Creation time:       Tue Jun  7 14:55:35 2022


#       File generated by GOLD software.
#

@<TRIPOS>MOLECULE
unknown|prepared_Mpro-x0104|mol2|1|dock3
    31    32     1
SMALL
NO_CHARGES


@<TRIPOS>ATOM
      1 C1          -7.9706  19.6572  66.4443 C.3            1 RES1               0.0000
      2 C2          -8.5482  18.3165  66.7377 C.2            1 RES1               0.0000
      3 O3          -8.7486  17.4624  65.8523 O.2            1 RES1               0.0000
      4 N4          -8.8997  17.9558  68.0711 N.am           1 RES1               0.0000
      5 C5          -9.4620  16.6513  68.3541 C.3            1 RES1               0.0000
      6 C6         -10.8119  16.8541  68.9973 C.3            1 RES1               0.0000
      7 C7         -11.4473  15.5818  69.3895 C.2            1 RES1               0.0000
      8 C8         -11.7043  14.4500  68.6475 C.2            1 RES1               0.0000
      9 N9         -12.3008  13.5426  69.4326 N.pl3          1 RES1               0.0000
     10 C10        -12.4564  14.0316  70.6968 C.ar           1 RES1               0.0000
     11 C11        -13.0024  13.4905  71.8389 C.ar           1 RES1               0.0000
     12 C12        -13.0091  14.2602  72.9829 C.ar           1 RES1               0.0000
     13 C13        -12.4903  15.5381  73.0108 C.ar           1 RES1               0.0000
     14 F14        -12.5213  16.2496  74.1549 F              1 RES1               0.0000
     15 C15        -11.9556  16.0347  71.8455 C.ar           1 RES1               0.0000
     16 C16        -11.9174  15.3104  70.6555 C.ar           1 RES1               0.0000
     17 H17         -8.6881  20.4439  66.7435 H              1 RES1               0.0000
     18 H18         -7.7465  19.6977  65.3442 H              1 RES1               0.0000
     19 H19         -6.9993  19.8160  66.9555 H              1 RES1               0.0000
     20 H20         -8.7390  18.6564  68.8248 H              1 RES1               0.0000
     21 H21         -8.8190  16.0411  69.0166 H              1 RES1               0.0000
     22 H22         -9.5392  16.0931  67.3939 H              1 RES1               0.0000
     23 H23        -11.5098  17.4026  68.3347 H              1 RES1               0.0000
     24 H24        -10.6514  17.5204  69.8786 H              1 RES1               0.0000
     25 H25        -11.4520  14.3522  67.6180 H              1 RES1               0.0000
     26 H26        -12.5942  12.6083  69.1033 H              1 RES1               0.0000
     27 H27        -13.4206  12.5025  71.8745 H              1 RES1               0.0000
     28 H28        -13.4351  13.8510  73.8983 H              1 RES1               0.0000
     29 H29        -11.5314  17.0462  71.8243 H              1 RES1               0.0000
     30 ****        -8.5192  17.6657  64.9004 LP             1 RES1               0.0000
     31 ****        -9.1387  16.5739  66.0937 LP             1 RES1               0.0000
@<TRIPOS>BOND
    1    1    2 1     
    2    2    3 2     
    3    2    4 am    
    4    4    5 1     
    5    5    6 1     
    6    6    7 1     
    7    7    8 2     
    8    8    9 1     
    9    9   10 1     
   10   10   11 ar    
   11   11   12 ar    
   12   12   13 ar    
   13   13   14 1     
   14   13   15 ar    
   15   15   16 ar    
   16   16    7 1     
   17   10   16 ar    
   18    1   17 1     
   19    1   18 1     
   20    1   19 1     
   21    4   20 1     
   22    5   21 1     
   23    5   22 1     
   24    6   23 1     
   25    6   24 1     
   26    8   25 1     
   27    9   26 1     
   28   11   27 1     
   29   12   28 1     
   30   15   29 1     
   31    3   30 1     
   32    3   31 1     
@<TRIPOS>SUBSTRUCTURE
      1 RES1           1
@<TRIPOS>SET
LONE_PAIRS      STATIC     ATOMS    <user>   **** ""
2 30 31
DONOR_HYDROGENS      STATIC     ATOMS    <user>   **** ""
2 20 26
ATOM$BLUE        STATIC     ATOMS    COLORGROUP SYSTEM
2 30 31
ATOM$RED        STATIC     ATOMS    COLORGROUP SYSTEM
2 20 26
@<TRIPOS>COMMENT
> <Gold.Version>
2022.1.0

> <Gold.Id.Protein>
6LU7|6LU7_protein|mol2

> <Gold.Protein.RotatedTorsions>
[ 3973 1471 1470 1467 ] final  -78.19 input   60.00 | X-H torsion
[ 3372  414  413  411 ] final -153.03 input   60.00 | X-H torsion
[ 4268 1114 1113 1110 ] final  -89.27 input   59.99 | X-H torsion
[ 4409  924  923  921 ] final  109.17 input   59.99 | X-H torsion
[ 4183 1244 1243 1241 ] final  -32.07 input   59.99 | X-H torsion
[ 3800  178  177  174 ] final  -87.59 input   60.00 | X-H torsion
[ 3793  171  170  167 ] final   99.47 input   60.00 | X-H torsion
[ 3576  185  184  181 ] final -135.43 input   60.00 | X-H torsion
[ 3523  346  345  342 ] final -147.58 input   60.01 | X-H torsion
[ 3515  339  338  335 ] final   19.34 input   60.00 | X-H torsion
[ 3663  154  153  150 ] final -140.69 input   60.00 | X-H torsion
[ 4280 1130 1129 1126 ] final  127.70 input   60.00 | X-H torsion

> <Gold.Protein.ActiveResidues>
 VAL20   THR21   CYS22   GLY23   THR24   THR25   THR26   LEU27   ASN28   PRO39  
 ARG40   HIS41   VAL42   CYS44   THR45   SER46   ASP48   MET49   LEU50   PRO52  
 TYR54   TYR118  ASN119  ILE136  GLY138  SER139  PHE140  LEU141  ASN142  GLY143 
 SER144  CYS145  GLY146  SER147  TYR161  HIS163  HIS164  MET165  GLU166  LEU167 
 PRO168  THR169  GLY170  VAL171  HIS172  ALA173  PHE181  PHE185  VAL186  ASP187 
 ARG188  GLN189  THR190  ALA191  GLN192  ALA193 

> <Gold.Protein.RotatedAtoms>
  -15.4114   17.0633   75.8354 H   0  0  0  0  0  0  0  0  0  0  0  0  # atno 3372 bound_to 414 
   -3.6701   21.0975   74.2225 H   0  0  0  0  0  0  0  0  0  0  0  0  # atno 3515 bound_to 339 
   -2.1656   16.8967   72.6494 H   0  0  0  0  0  0  0  0  0  0  0  0  # atno 3523 bound_to 346 
   -7.3344   25.4772   63.0458 H   0  0  0  0  0  0  0  0  0  0  0  0  # atno 3576 bound_to 185 
   -6.7127   28.9997   65.2944 H   0  0  0  0  0  0  0  0  0  0  0  0  # atno 3663 bound_to 154 
   -2.8019   23.4167   71.7342 H   0  0  0  0  0  0  0  0  0  0  0  0  # atno 3793 bound_to 171 
   -6.8860   22.3022   71.5324 H   0  0  0  0  0  0  0  0  0  0  0  0  # atno 3800 bound_to 178 
  -15.0486    9.0851   77.5365 H   0  0  0  0  0  0  0  0  0  0  0  0  # atno 3973 bound_to 1471
  -20.8006   13.1612   64.6324 H   0  0  0  0  0  0  0  0  0  0  0  0  # atno 4183 bound_to 1244
  -12.3980   15.5660   61.5448 H   0  0  0  0  0  0  0  0  0  0  0  0  # atno 4268 bound_to 1114
  -15.5638   18.7982   59.2691 H   0  0  0  0  0  0  0  0  0  0  0  0  # atno 4280 bound_to 1130
  -10.4058   14.8956   57.0045 H   0  0  0  0  0  0  0  0  0  0  0  0  # atno 4409 bound_to 924 
  -15.6984    7.9600   78.5162 LP  0  0  0  0  0  0  0  0  0  0  0  0  # atno 4696 bound_to 1471
  -15.2894    7.5739   76.9832 LP  0  0  0  0  0  0  0  0  0  0  0  0  # atno 4697 bound_to 1471
  -13.9198   17.6053   76.1954 LP  0  0  0  0  0  0  0  0  0  0  0  0  # atno 4731 bound_to 414 
  -14.7598   18.2741   74.9651 LP  0  0  0  0  0  0  0  0  0  0  0  0  # atno 4732 bound_to 414 
  -13.8355   15.3345   60.8181 LP  0  0  0  0  0  0  0  0  0  0  0  0  # atno 4733 bound_to 1114
  -13.6874   16.4451   62.0061 LP  0  0  0  0  0  0  0  0  0  0  0  0  # atno 4734 bound_to 1114
  -11.8726   15.3240   56.4453 LP  0  0  0  0  0  0  0  0  0  0  0  0  # atno 4763 bound_to 924 
  -11.5926   15.2691   58.0532 LP  0  0  0  0  0  0  0  0  0  0  0  0  # atno 4764 bound_to 924 
  -19.8533   13.8243   63.4874 LP  0  0  0  0  0  0  0  0  0  0  0  0  # atno 4771 bound_to 1244
  -20.7102   12.4732   63.1605 LP  0  0  0  0  0  0  0  0  0  0  0  0  # atno 4772 bound_to 1244
   -7.5749   23.4092   72.5062 LP  0  0  0  0  0  0  0  0  0  0  0  0  # atno 4775 bound_to 178 
   -6.1546   23.7364   71.7698 LP  0  0  0  0  0  0  0  0  0  0  0  0  # atno 4776 bound_to 178 
   -3.3587   24.7955   72.3952 LP  0  0  0  0  0  0  0  0  0  0  0  0  # atno 4779 bound_to 171 
   -1.7999   24.3570   72.6058 LP  0  0  0  0  0  0  0  0  0  0  0  0  # atno 4780 bound_to 171 
   -7.8543   26.8552   63.7378 LP  0  0  0  0  0  0  0  0  0  0  0  0  # atno 4783 bound_to 185 
   -8.7672   25.5035   63.8169 LP  0  0  0  0  0  0  0  0  0  0  0  0  # atno 4784 bound_to 185 
   -2.3469   18.4235   73.1824 LP  0  0  0  0  0  0  0  0  0  0  0  0  # atno 4785 bound_to 346 
   -3.6553   17.5417   72.7616 LP  0  0  0  0  0  0  0  0  0  0  0  0  # atno 4786 bound_to 346 
   -2.8550   20.7360   75.5837 LP  0  0  0  0  0  0  0  0  0  0  0  0  # atno 4787 bound_to 339 
   -2.9395   22.2823   75.0654 LP  0  0  0  0  0  0  0  0  0  0  0  0  # atno 4788 bound_to 339 
   -8.0126   29.9229   64.9686 LP  0  0  0  0  0  0  0  0  0  0  0  0  # atno 4797 bound_to 154 
   -8.2073   28.3767   65.4566 LP  0  0  0  0  0  0  0  0  0  0  0  0  # atno 4798 bound_to 154 

> <Gold.Score>
     Score     S(PLP)   S(hbond)     S(cho)   S(metal)  DE(clash)   DE(tors)     intcor
     48.43     -45.51       1.00       0.00       0.00       0.00       0.05       0.01

> <Gold.PLP.Fitness>
48.4252

> <Gold.PLP.PLP>
-45.5067

> <Gold.PLP.part.hbond>
-1.0000

> <Gold.PLP.part.metal>
0.0000

> <Gold.PLP.part.buried>
-5.4319

> <Gold.PLP.part.nonpolar>
-40.1109

> <Gold.PLP.part.repulsive>
0.0553

> <Gold.PLP.ligand.clash>
0.0000

> <Gold.PLP.ligand.torsion>
0.0459

> <Gold.PLP.Chemscore.Hbond>
1.0000

> <Gold.PLP.Chemscore.CHOScore>
0.0000

> <Gold.PLP.Chemscore.Metal>
0.0000

> <Gold.Chemscore.Hbonds>
donor molecule, donor type, donor heavy atom, donor atom, acceptor molecule, acceptor atom, score
      P1  H  1105  4261       L1     3  1.00

> <Gold.PLP.Chemscore.Internal.Correction>
0.0104

