#       Name:                unknown
#       Creating user name   williammccorkindale
#       Creation time:       Tue Jun  7 14:55:40 2022


#       File generated by GOLD software.
#

@<TRIPOS>MOLECULE
unknown|prepared_Mpro-x0946|mol2|1|dock3
    18    18     1
SMALL
NO_CHARGES


@<TRIPOS>ATOM
      1 Br1        -13.6710  15.8886  72.9979 Br             1 RES1               0.0000
      2 C2         -13.1267  14.3815  71.9722 C.ar           1 RES1               0.0000
      3 C3         -13.4168  13.0760  72.3518 C.ar           1 RES1               0.0000
      4 C4         -13.0004  12.0098  71.5740 C.ar           1 RES1               0.0000
      5 C5         -12.2902  12.2006  70.4065 C.ar           1 RES1               0.0000
      6 S6         -11.7770  10.8322  69.4436 S.o2           1 RES1               0.0000
      7 N7         -12.6219   9.4286  70.0292 N.3            1 RES1               0.0000
      8 O8         -12.1015  11.0030  68.0122 O.2            1 RES1               0.0000
      9 O9         -10.3272  10.6109  69.7102 O.2            1 RES1               0.0000
     10 C10        -12.0004  13.4956  70.0265 C.ar           1 RES1               0.0000
     11 C11        -12.4166  14.5821  70.8056 C.ar           1 RES1               0.0000
     12 H12        -13.9726  12.9375  73.2665 H              1 RES1               0.0000
     13 H13        -13.2323  10.9886  71.8792 H              1 RES1               0.0000
     14 H14        -11.9278   8.9164  70.6418 H              1 RES1               0.0000
     15 H15        -12.8400   8.8092  69.2267 H              1 RES1               0.0000
     16 H16        -11.4449  13.6223  69.1115 H              1 RES1               0.0000
     17 H17        -12.1795  15.5865  70.4902 H              1 RES1               0.0000
     18 ****       -13.4632   9.6767  70.5094 LP             1 RES1               0.0000
@<TRIPOS>BOND
    1    1    2 1     
    2    2    3 ar    
    3    3    4 ar    
    4    4    5 ar    
    5    5    6 1     
    6    6    7 1     
    7    6    8 2     
    8    6    9 2     
    9    5   10 ar    
   10   10   11 ar    
   11   11    2 ar    
   12    3   12 1     
   13    4   13 1     
   14    7   14 1     
   15    7   15 1     
   16   10   16 1     
   17   11   17 1     
   18    7   18 1     
@<TRIPOS>SUBSTRUCTURE
      1 RES1           1
@<TRIPOS>SET
LONE_PAIRS      STATIC     ATOMS    <user>   **** ""
3 18 8 9
DONOR_HYDROGENS      STATIC     ATOMS    <user>   **** ""
2 14 15
ATOM$BLUE        STATIC     ATOMS    COLORGROUP SYSTEM
3 18 8 9
ATOM$RED        STATIC     ATOMS    COLORGROUP SYSTEM
2 14 15
@<TRIPOS>COMMENT
> <Gold.Version>
2022.1.0

> <Gold.Id.Protein>
6LU7|6LU7_protein|mol2

> <Gold.Protein.RotatedTorsions>
[ 3973 1471 1470 1467 ] final  -35.85 input   60.00 | X-H torsion
[ 3372  414  413  411 ] final    3.40 input   60.00 | X-H torsion
[ 4268 1114 1113 1110 ] final  -82.02 input   59.99 | X-H torsion
[ 4409  924  923  921 ] final   44.85 input   59.99 | X-H torsion
[ 4183 1244 1243 1241 ] final   89.25 input   59.99 | X-H torsion
[ 3800  178  177  174 ] final  157.60 input   60.00 | X-H torsion
[ 3793  171  170  167 ] final -127.68 input   60.00 | X-H torsion
[ 3576  185  184  181 ] final   17.21 input   60.00 | X-H torsion
[ 3523  346  345  342 ] final  -43.65 input   60.01 | X-H torsion
[ 3515  339  338  335 ] final   96.04 input   60.00 | X-H torsion
[ 3663  154  153  150 ] final  149.70 input   60.00 | X-H torsion
[ 4280 1130 1129 1126 ] final  -63.01 input   60.00 | X-H torsion

> <Gold.Protein.ActiveResidues>
 VAL20   THR21   CYS22   GLY23   THR24   THR25   THR26   LEU27   ASN28   PRO39  
 ARG40   HIS41   VAL42   CYS44   THR45   SER46   ASP48   MET49   LEU50   PRO52  
 TYR54   TYR118  ASN119  ILE136  GLY138  SER139  PHE140  LEU141  ASN142  GLY143 
 SER144  CYS145  GLY146  SER147  TYR161  HIS163  HIS164  MET165  GLU166  LEU167 
 PRO168  THR169  GLY170  VAL171  HIS172  ALA173  PHE181  PHE185  VAL186  ASP187 
 ARG188  GLN189  THR190  ALA191  GLN192  ALA193 

> <Gold.Protein.RotatedAtoms>
  -14.2391   18.3358   75.2300 H   0  0  0  0  0  0  0  0  0  0  0  0  # atno 3372 bound_to 414 
   -3.3225   22.1712   74.4984 H   0  0  0  0  0  0  0  0  0  0  0  0  # atno 3515 bound_to 339 
   -3.5833   17.3014   72.6833 H   0  0  0  0  0  0  0  0  0  0  0  0  # atno 3523 bound_to 346 
   -8.7996   26.0021   63.9877 H   0  0  0  0  0  0  0  0  0  0  0  0  # atno 3576 bound_to 185 
   -7.2136   29.8959   64.9976 H   0  0  0  0  0  0  0  0  0  0  0  0  # atno 3663 bound_to 154 
   -1.8973   24.5293   72.6768 H   0  0  0  0  0  0  0  0  0  0  0  0  # atno 3793 bound_to 171 
   -7.6061   23.3325   72.4857 H   0  0  0  0  0  0  0  0  0  0  0  0  # atno 3800 bound_to 178 
  -14.9676    8.7072   76.9816 H   0  0  0  0  0  0  0  0  0  0  0  0  # atno 3973 bound_to 1471
  -20.6977   12.4883   63.1490 H   0  0  0  0  0  0  0  0  0  0  0  0  # atno 4183 bound_to 1244
  -12.3946   15.6482   61.6301 H   0  0  0  0  0  0  0  0  0  0  0  0  # atno 4268 bound_to 1114
  -16.4176   20.0783   58.2167 H   0  0  0  0  0  0  0  0  0  0  0  0  # atno 4280 bound_to 1130
  -11.0502   15.0758   56.2661 H   0  0  0  0  0  0  0  0  0  0  0  0  # atno 4409 bound_to 924 
  -15.5127    8.6153   78.5121 LP  0  0  0  0  0  0  0  0  0  0  0  0  # atno 4696 bound_to 1471
  -15.5567    7.2993   77.5462 LP  0  0  0  0  0  0  0  0  0  0  0  0  # atno 4697 bound_to 1471
  -15.5633   17.4019   75.3800 LP  0  0  0  0  0  0  0  0  0  0  0  0  # atno 4731 bound_to 414 
  -14.2968   17.1960   76.3901 LP  0  0  0  0  0  0  0  0  0  0  0  0  # atno 4732 bound_to 414 
  -13.7368   15.2737   60.7898 LP  0  0  0  0  0  0  0  0  0  0  0  0  # atno 4733 bound_to 1114
  -13.7896   16.4231   61.9485 LP  0  0  0  0  0  0  0  0  0  0  0  0  # atno 4734 bound_to 1114
  -12.1621   15.4284   57.4007 LP  0  0  0  0  0  0  0  0  0  0  0  0  # atno 4763 bound_to 924 
  -10.6541   14.9831   57.8416 LP  0  0  0  0  0  0  0  0  0  0  0  0  # atno 4764 bound_to 924 
  -20.8125   13.1421   64.6347 LP  0  0  0  0  0  0  0  0  0  0  0  0  # atno 4771 bound_to 1244
  -19.8547   13.8332   63.5071 LP  0  0  0  0  0  0  0  0  0  0  0  0  # atno 4772 bound_to 1244
   -6.1935   23.7921   71.8214 LP  0  0  0  0  0  0  0  0  0  0  0  0  # atno 4775 bound_to 178 
   -6.8108   22.3160   71.4947 LP  0  0  0  0  0  0  0  0  0  0  0  0  # atno 4776 bound_to 178 
   -2.5997   23.3733   71.7723 LP  0  0  0  0  0  0  0  0  0  0  0  0  # atno 4779 bound_to 171 
   -3.4700   24.6586   72.2793 LP  0  0  0  0  0  0  0  0  0  0  0  0  # atno 4780 bound_to 171 
   -7.7183   25.1278   63.1426 LP  0  0  0  0  0  0  0  0  0  0  0  0  # atno 4783 bound_to 185 
   -7.4275   26.7023   63.4634 LP  0  0  0  0  0  0  0  0  0  0  0  0  # atno 4784 bound_to 185 
   -1.9742   17.0619   72.7215 LP  0  0  0  0  0  0  0  0  0  0  0  0  # atno 4785 bound_to 346 
   -2.6004   18.4959   73.1884 LP  0  0  0  0  0  0  0  0  0  0  0  0  # atno 4786 bound_to 346 
   -3.4978   20.5581   74.6225 LP  0  0  0  0  0  0  0  0  0  0  0  0  # atno 4787 bound_to 339 
   -2.6468   21.3789   75.7489 LP  0  0  0  0  0  0  0  0  0  0  0  0  # atno 4788 bound_to 339 
   -8.5835   29.0498   65.2337 LP  0  0  0  0  0  0  0  0  0  0  0  0  # atno 4797 bound_to 154 
   -7.1320   28.3471   65.4903 LP  0  0  0  0  0  0  0  0  0  0  0  0  # atno 4798 bound_to 154 

> <Gold.Score>
     Score     S(PLP)   S(hbond)     S(cho)   S(metal)  DE(clash)   DE(tors)     intcor
     37.88     -32.11       2.00       0.00       0.00       0.00       1.17       2.11

> <Gold.PLP.Fitness>
37.8759

> <Gold.PLP.PLP>
-32.1100

> <Gold.PLP.part.hbond>
-1.9062

> <Gold.PLP.part.metal>
0.0000

> <Gold.PLP.part.buried>
-5.0695

> <Gold.PLP.part.nonpolar>
-26.6072

> <Gold.PLP.part.repulsive>
0.4222

> <Gold.PLP.ligand.clash>
0.0000

> <Gold.PLP.ligand.torsion>
1.1705

> <Gold.PLP.Chemscore.Hbond>
2.0000

> <Gold.PLP.Chemscore.CHOScore>
0.0000

> <Gold.PLP.Chemscore.Metal>
0.0000

> <Gold.Chemscore.Hbonds>
donor molecule, donor type, donor heavy atom, donor atom, acceptor molecule, acceptor atom, score
      L1  H     7    15       P1  1284  1.00
      P1  H  1281  4132       L1     8  1.00

> <Gold.PLP.Chemscore.Internal.Correction>
2.1069

