#       Name:                unknown
#       Creating user name   williammccorkindale
#       Creation time:       Tue Jun  7 14:55:39 2022


#       File generated by GOLD software.
#

@<TRIPOS>MOLECULE
unknown|prepared_Mpro-x0991|mol2|1|dock3
    14    13     1
SMALL
NO_CHARGES


@<TRIPOS>ATOM
      1 C1         -12.6286  16.1601  73.3123 C.3            1 RES1               0.0000
      2 C2         -12.6910  14.7026  72.9260 C.3            1 RES1               0.0000
      3 C3         -12.7501  14.5939  71.4588 C.2            1 RES1               0.0000
      4 N4         -13.7740  15.0550  70.8505 N.2            1 RES1               0.0000
      5 N5         -11.6970  13.9880  70.6891 N.pl3          1 RES1               0.0000
      6 H6         -13.6644  16.5511  73.3884 H              1 RES1               0.0000
      7 H7         -12.1091  16.7634  72.5190 H              1 RES1               0.0000
      8 H8         -12.0398  16.3359  74.2393 H              1 RES1               0.0000
      9 H9         -11.8254  14.1249  73.3114 H              1 RES1               0.0000
     10 H10        -13.6574  14.2715  73.3144 H              1 RES1               0.0000
     11 H11        -13.8991  15.0222  69.8313 H              1 RES1               0.0000
     12 H12        -10.8868  13.6284  71.2252 H              1 RES1               0.0000
     13 H13        -11.8031  13.9438  69.6525 H              1 RES1               0.0000
     14 ****       -14.4977  15.4734  71.3994 LP             1 RES1               0.0000
@<TRIPOS>BOND
    1    1    2 1     
    2    2    3 1     
    3    3    4 2     
    4    3    5 1     
    5    1    6 1     
    6    1    7 1     
    7    1    8 1     
    8    2    9 1     
    9    2   10 1     
   10    4   11 1     
   11    5   12 1     
   12    5   13 1     
   13    4   14 1     
@<TRIPOS>SUBSTRUCTURE
      1 RES1           1
@<TRIPOS>SET
LONE_PAIRS      STATIC     ATOMS    <user>   **** ""
1 14
DONOR_HYDROGENS      STATIC     ATOMS    <user>   **** ""
3 11 12 13
ATOM$BLUE        STATIC     ATOMS    COLORGROUP SYSTEM
1 14
ATOM$RED        STATIC     ATOMS    COLORGROUP SYSTEM
3 11 12 13
@<TRIPOS>COMMENT
> <Gold.Version>
2022.1.0

> <Gold.Id.Protein>
6LU7|6LU7_protein|mol2

> <Gold.Protein.RotatedTorsions>
[ 3973 1471 1470 1467 ] final  -58.81 input   60.00 | X-H torsion
[ 3372  414  413  411 ] final -141.27 input   60.00 | X-H torsion
[ 4268 1114 1113 1110 ] final -157.79 input   59.99 | X-H torsion
[ 4409  924  923  921 ] final -166.50 input   59.99 | X-H torsion
[ 4183 1244 1243 1241 ] final  -55.46 input   59.99 | X-H torsion
[ 3800  178  177  174 ] final  173.26 input   60.00 | X-H torsion
[ 3793  171  170  167 ] final  -16.47 input   60.00 | X-H torsion
[ 3576  185  184  181 ] final   41.48 input   60.00 | X-H torsion
[ 3523  346  345  342 ] final   48.02 input   60.01 | X-H torsion
[ 3515  339  338  335 ] final   98.31 input   60.00 | X-H torsion
[ 3663  154  153  150 ] final   55.06 input   60.00 | X-H torsion
[ 4280 1130 1129 1126 ] final -161.06 input   60.00 | X-H torsion

> <Gold.Protein.ActiveResidues>
 VAL20   THR21   CYS22   GLY23   THR24   THR25   THR26   LEU27   ASN28   PRO39  
 ARG40   HIS41   VAL42   CYS44   THR45   SER46   ASP48   MET49   LEU50   PRO52  
 TYR54   TYR118  ASN119  ILE136  GLY138  SER139  PHE140  LEU141  ASN142  GLY143 
 SER144  CYS145  GLY146  SER147  TYR161  HIS163  HIS164  MET165  GLU166  LEU167 
 PRO168  THR169  GLY170  VAL171  HIS172  ALA173  PHE181  PHE185  VAL186  ASP187 
 ARG188  GLN189  THR190  ALA191  GLN192  ALA193 

> <Gold.Protein.RotatedAtoms>
  -15.4946   17.1537   75.6881 H   0  0  0  0  0  0  0  0  0  0  0  0  # atno 3372 bound_to 414 
   -3.3030   22.1892   74.5244 H   0  0  0  0  0  0  0  0  0  0  0  0  # atno 3515 bound_to 339 
   -3.0552   18.4495   73.1383 H   0  0  0  0  0  0  0  0  0  0  0  0  # atno 3523 bound_to 346 
   -8.6589   26.3680   64.0232 H   0  0  0  0  0  0  0  0  0  0  0  0  # atno 3576 bound_to 185 
   -8.5062   29.4371   65.1145 H   0  0  0  0  0  0  0  0  0  0  0  0  # atno 3663 bound_to 154 
   -3.3922   24.7523   72.3564 H   0  0  0  0  0  0  0  0  0  0  0  0  # atno 3793 bound_to 171 
   -7.6745   23.0971   72.4147 H   0  0  0  0  0  0  0  0  0  0  0  0  # atno 3800 bound_to 178 
  -14.9875    8.9619   77.2528 H   0  0  0  0  0  0  0  0  0  0  0  0  # atno 3973 bound_to 1471
  -20.5773   13.4681   64.6352 H   0  0  0  0  0  0  0  0  0  0  0  0  # atno 4183 bound_to 1244
  -13.0514   15.1107   60.8545 H   0  0  0  0  0  0  0  0  0  0  0  0  # atno 4268 bound_to 1114
  -16.0276   18.7212   58.2851 H   0  0  0  0  0  0  0  0  0  0  0  0  # atno 4280 bound_to 1130
  -11.0409   15.1059   58.0684 H   0  0  0  0  0  0  0  0  0  0  0  0  # atno 4409 bound_to 924 
  -15.6322    8.2651   78.5744 LP  0  0  0  0  0  0  0  0  0  0  0  0  # atno 4696 bound_to 1471
  -15.4171    7.3929   77.2107 LP  0  0  0  0  0  0  0  0  0  0  0  0  # atno 4697 bound_to 1471
  -14.0133   17.4630   76.2866 LP  0  0  0  0  0  0  0  0  0  0  0  0  # atno 4731 bound_to 414 
  -14.5826   18.3254   75.0222 LP  0  0  0  0  0  0  0  0  0  0  0  0  # atno 4732 bound_to 414 
  -14.1951   16.0912   61.4696 LP  0  0  0  0  0  0  0  0  0  0  0  0  # atno 4733 bound_to 1114
  -12.6697   16.1468   62.0498 LP  0  0  0  0  0  0  0  0  0  0  0  0  # atno 4734 bound_to 1114
  -10.6611   14.9607   56.4928 LP  0  0  0  0  0  0  0  0  0  0  0  0  # atno 4763 bound_to 924 
  -12.1645   15.4206   56.9342 LP  0  0  0  0  0  0  0  0  0  0  0  0  # atno 4764 bound_to 924 
  -19.8819   13.6117   63.1711 LP  0  0  0  0  0  0  0  0  0  0  0  0  # atno 4771 bound_to 1244
  -20.9065   12.3768   63.4739 LP  0  0  0  0  0  0  0  0  0  0  0  0  # atno 4772 bound_to 1244
   -6.3433   23.9267   71.9810 LP  0  0  0  0  0  0  0  0  0  0  0  0  # atno 4775 bound_to 178 
   -6.5922   22.4184   71.4066 LP  0  0  0  0  0  0  0  0  0  0  0  0  # atno 4776 bound_to 178 
   -1.8247   24.4132   72.6319 LP  0  0  0  0  0  0  0  0  0  0  0  0  # atno 4779 bound_to 171 
   -2.7394   23.3941   71.7423 LP  0  0  0  0  0  0  0  0  0  0  0  0  # atno 4780 bound_to 171 
   -8.0691   25.0340   63.3017 LP  0  0  0  0  0  0  0  0  0  0  0  0  # atno 4783 bound_to 185 
   -7.2185   26.4276   63.2685 LP  0  0  0  0  0  0  0  0  0  0  0  0  # atno 4784 bound_to 185 
   -3.3136   16.9453   72.5738 LP  0  0  0  0  0  0  0  0  0  0  0  0  # atno 4785 bound_to 346 
   -1.7927   17.4563   72.8778 LP  0  0  0  0  0  0  0  0  0  0  0  0  # atno 4786 bound_to 346 
   -3.5130   20.5770   74.5940 LP  0  0  0  0  0  0  0  0  0  0  0  0  # atno 4787 bound_to 339 
   -2.6513   21.3418   75.7512 LP  0  0  0  0  0  0  0  0  0  0  0  0  # atno 4788 bound_to 339 
   -7.5206   28.2092   65.5255 LP  0  0  0  0  0  0  0  0  0  0  0  0  # atno 4797 bound_to 154 
   -6.8932   29.6498   65.0809 LP  0  0  0  0  0  0  0  0  0  0  0  0  # atno 4798 bound_to 154 

> <Gold.Score>
     Score     S(PLP)   S(hbond)     S(cho)   S(metal)  DE(clash)   DE(tors)     intcor
     24.14     -18.46       1.91       0.00       0.00       0.00       0.03       0.00

> <Gold.PLP.Fitness>
24.1412

> <Gold.PLP.PLP>
-18.4579

> <Gold.PLP.part.hbond>
-1.9903

> <Gold.PLP.part.metal>
0.0000

> <Gold.PLP.part.buried>
-3.3314

> <Gold.PLP.part.nonpolar>
-13.8385

> <Gold.PLP.part.repulsive>
0.0000

> <Gold.PLP.ligand.clash>
0.0000

> <Gold.PLP.ligand.torsion>
0.0251

> <Gold.PLP.Chemscore.Hbond>
1.9111

> <Gold.PLP.Chemscore.CHOScore>
0.0000

> <Gold.PLP.Chemscore.Metal>
0.0000

> <Gold.Chemscore.Hbonds>
donor molecule, donor type, donor heavy atom, donor atom, acceptor molecule, acceptor atom, score
      L1  H     4    11       P1  1266  0.92
      L1  H     5    12       P1  1464  0.99

> <Gold.PLP.Chemscore.Internal.Correction>
0.0000

