unknown|prepared_Mpro-x0991|sdf|1|dock1
  -GOLD-   5 72214353D 1   1.00000     0.00000

 13 12  0  0  0  0  0  0  0  0  1 V2000
  -12.8303   15.5321   73.4107 C   0  0  0  0  0  0  0  0  0  0  0  0
  -12.3398   14.7368   72.2130 C   0  0  0  0  0  0  0  0  0  0  0  0
  -13.1893   14.9251   71.0252 C   0  0  0  0  0  0  0  0  0  0  0  0
  -14.4155   15.3041   71.0930 N   0  0  0  0  0  0  0  0  0  0  0  0
  -12.6483   14.6828   69.7431 N   0  0  0  0  0  0  0  0  0  0  0  0
  -12.9609   14.8723   74.2800 H   0  0  0  0  0  0  0  0  0  0  0  0
  -13.7981   16.0206   73.2153 H   0  0  0  0  0  0  0  0  0  0  0  0
  -12.1062   16.3574   73.6379 H   0  0  0  0  0  0  0  0  0  0  0  0
  -11.2674   14.9874   71.9789 H   0  0  0  0  0  0  0  0  0  0  0  0
  -12.3304   13.6473   72.4482 H   0  0  0  0  0  0  0  0  0  0  0  0
  -14.9895   15.4281   70.2368 H   0  0  0  0  0  0  0  0  0  0  0  0
  -11.6492   14.3708   69.6319 H   0  0  0  0  0  0  0  0  0  0  0  0
  -13.2805   14.8255   68.9011 H   0  0  0  0  0  0  0  0  0  0  0  0
  1  2  1  0  0  0  0
  2  3  1  0  0  0  0
  3  4  2  0  0  0  0
  3  5  1  0  0  0  0
  1  6  1  0  0  0  0
  1  7  1  0  0  0  0
  1  8  1  0  0  0  0
  2  9  1  0  0  0  0
  2 10  1  0  0  0  0
  4 11  1  0  0  0  0
  5 12  1  0  0  0  0
  5 13  1  0  0  0  0
M  END
> <Gold.Version>
2022.1.0

> <Gold.Id.Protein>
6LU7|6LU7_protein|mol2

> <Gold.PLP.Fitness>
23.6853

> <Gold.PLP.PLP>
-18.4350

> <Gold.PLP.part.hbond>
-2.0722

> <Gold.PLP.part.metal>
0.0000

> <Gold.PLP.part.buried>
-3.6390

> <Gold.PLP.part.nonpolar>
-13.5264

> <Gold.PLP.part.repulsive>
0.0359

> <Gold.PLP.ligand.clash>
0.0000

> <Gold.PLP.ligand.torsion>
0.3268

> <Gold.PLP.Chemscore.Hbond>
1.9680

> <Gold.PLP.Chemscore.CHOScore>
0.0000

> <Gold.PLP.Chemscore.Metal>
0.0000

> <Gold.Chemscore.Hbonds>
donor molecule, donor type, donor heavy atom, donor atom, acceptor molecule, acceptor atom, score
      L1  H     4    11       P1  1266  0.99
      L1  H     5    13       P1  1266  0.98

> <Gold.PLP.Chemscore.Internal.Correction>
0.0000

> <Gold.Protein.RotatedTorsions>
[ 3973 1471 1470 1467 ] final  133.50 input   60.00 | X-H torsion
[ 3372  414  413  411 ] final    4.57 input   60.00 | X-H torsion
[ 4268 1114 1113 1110 ] final  -62.21 input   59.99 | X-H torsion
[ 4409  924  923  921 ] final -168.38 input   59.99 | X-H torsion
[ 4183 1244 1243 1241 ] final -129.13 input   59.99 | X-H torsion
[ 3800  178  177  174 ] final   72.15 input   60.00 | X-H torsion
[ 3793  171  170  167 ] final  176.46 input   60.00 | X-H torsion
[ 3576  185  184  181 ] final    7.33 input   60.00 | X-H torsion
[ 3523  346  345  342 ] final   40.71 input   60.01 | X-H torsion
[ 3515  339  338  335 ] final  115.61 input   60.00 | X-H torsion
[ 3663  154  153  150 ] final  -43.75 input   60.00 | X-H torsion
[ 4280 1130 1129 1126 ] final   21.93 input   60.00 | X-H torsion

> <Gold.Protein.ActiveResidues>
 VAL20   THR21   CYS22   GLY23   THR24   THR25   THR26   LEU27   ASN28   PRO39  
 ARG40   HIS41   VAL42   CYS44   THR45   SER46   ASP48   MET49   LEU50   PRO52  
 TYR54   TYR118  ASN119  ILE136  GLY138  SER139  PHE140  LEU141  ASN142  GLY143 
 SER144  CYS145  GLY146  SER147  TYR161  HIS163  HIS164  MET165  GLU166  LEU167 
 PRO168  THR169  GLY170  VAL171  HIS172  ALA173  PHE181  PHE185  VAL186  ASP187 
 ARG188  GLN189  THR190  ALA191  GLN192  ALA193 

> <Gold.Protein.RotatedAtoms>
  -14.2245   18.3333   75.2419 H   0  0  0  0  0  0  0  0  0  0  0  0  # atno 3372 bound_to 414 
   -3.1495   22.2826   74.7412 H   0  0  0  0  0  0  0  0  0  0  0  0  # atno 3515 bound_to 339 
   -3.1634   18.4054   73.1140 H   0  0  0  0  0  0  0  0  0  0  0  0  # atno 3523 bound_to 346 
   -8.8161   25.8464   63.9495 H   0  0  0  0  0  0  0  0  0  0  0  0  # atno 3576 bound_to 185 
   -7.8651   28.2321   65.5127 H   0  0  0  0  0  0  0  0  0  0  0  0  # atno 3663 bound_to 154 
   -1.8162   23.7700   72.2458 H   0  0  0  0  0  0  0  0  0  0  0  0  # atno 3793 bound_to 171 
   -6.5780   24.0061   72.1645 H   0  0  0  0  0  0  0  0  0  0  0  0  # atno 3800 bound_to 178 
  -15.7173    7.5781   78.2616 H   0  0  0  0  0  0  0  0  0  0  0  0  # atno 3973 bound_to 1471
  -19.9269   13.9216   63.8406 H   0  0  0  0  0  0  0  0  0  0  0  0  # atno 4183 bound_to 1244
  -12.4587   15.8794   61.8449 H   0  0  0  0  0  0  0  0  0  0  0  0  # atno 4268 bound_to 1114
  -15.9012   20.2498   59.3578 H   0  0  0  0  0  0  0  0  0  0  0  0  # atno 4280 bound_to 1130
  -11.0129   15.0973   58.0597 H   0  0  0  0  0  0  0  0  0  0  0  0  # atno 4409 bound_to 924 
  -15.1182    7.9597   76.7976 LP  0  0  0  0  0  0  0  0  0  0  0  0  # atno 4696 bound_to 1471
  -15.1961    9.0921   77.9716 LP  0  0  0  0  0  0  0  0  0  0  0  0  # atno 4697 bound_to 1471
  -15.5624   17.4154   75.3664 LP  0  0  0  0  0  0  0  0  0  0  0  0  # atno 4731 bound_to 414 
  -14.3125   17.1851   76.3917 LP  0  0  0  0  0  0  0  0  0  0  0  0  # atno 4732 bound_to 414 
  -13.4371   15.1516   60.7675 LP  0  0  0  0  0  0  0  0  0  0  0  0  # atno 4733 bound_to 1114
  -14.0246   16.3123   61.7545 LP  0  0  0  0  0  0  0  0  0  0  0  0  # atno 4734 bound_to 1114
  -10.6826   14.9668   56.4717 LP  0  0  0  0  0  0  0  0  0  0  0  0  # atno 4763 bound_to 924 
  -12.1711   15.4232   56.9642 LP  0  0  0  0  0  0  0  0  0  0  0  0  # atno 4764 bound_to 924 
  -20.4768   12.6764   62.9489 LP  0  0  0  0  0  0  0  0  0  0  0  0  # atno 4771 bound_to 1244
  -20.9667   12.8553   64.4964 LP  0  0  0  0  0  0  0  0  0  0  0  0  # atno 4772 bound_to 1244
   -6.3577   22.6129   71.3531 LP  0  0  0  0  0  0  0  0  0  0  0  0  # atno 4775 bound_to 178 
   -7.6820   22.8168   72.2865 LP  0  0  0  0  0  0  0  0  0  0  0  0  # atno 4776 bound_to 178 
   -3.3773   23.7917   71.7871 LP  0  0  0  0  0  0  0  0  0  0  0  0  # atno 4779 bound_to 171 
   -2.7741   25.0050   72.6986 LP  0  0  0  0  0  0  0  0  0  0  0  0  # atno 4780 bound_to 171 
   -7.5857   25.2091   63.0963 LP  0  0  0  0  0  0  0  0  0  0  0  0  # atno 4783 bound_to 185 
   -7.5435   26.7778   63.5482 LP  0  0  0  0  0  0  0  0  0  0  0  0  # atno 4784 bound_to 185 
   -3.2159   16.8773   72.5571 LP  0  0  0  0  0  0  0  0  0  0  0  0  # atno 4785 bound_to 346 
   -1.7814   17.5686   72.9191 LP  0  0  0  0  0  0  0  0  0  0  0  0  # atno 4786 bound_to 346 
   -3.6085   20.7594   74.3990 LP  0  0  0  0  0  0  0  0  0  0  0  0  # atno 4787 bound_to 339 
   -2.7103   21.0655   75.7279 LP  0  0  0  0  0  0  0  0  0  0  0  0  # atno 4788 bound_to 339 
   -6.7369   29.3561   65.1780 LP  0  0  0  0  0  0  0  0  0  0  0  0  # atno 4797 bound_to 154 
   -8.3225   29.7165   65.0273 LP  0  0  0  0  0  0  0  0  0  0  0  0  # atno 4798 bound_to 154 

$$$$
