#       Name:                unknown
#       Creating user name   williammccorkindale
#       Creation time:       Tue Jun  7 14:55:42 2022


#       File generated by GOLD software.
#

@<TRIPOS>MOLECULE
unknown|prepared_Mpro-x0540|mol2|1|dock3
    42    43     1
SMALL
NO_CHARGES


@<TRIPOS>ATOM
      1 O1         -12.2858  11.1437  68.1438 O.2            1 RES1               0.0000
      2 C2         -11.0779  11.3849  67.9513 C.2            1 RES1               0.0000
      3 N3         -10.1271  10.5393  68.5911 N.am           1 RES1               0.0000
      4 C4         -10.5442   9.4568  69.4211 C.3            1 RES1               0.0000
      5 C5         -11.0259   9.8673  70.7817 C.3            1 RES1               0.0000
      6 C6         -10.6289   8.7696  71.7323 C.ar           1 RES1               0.0000
      7 C7         -11.5500   7.7888  72.0878 C.ar           1 RES1               0.0000
      8 C8         -11.2212   6.7684  72.9559 C.ar           1 RES1               0.0000
      9 N9          -9.9657   6.7696  73.4409 N.ar           1 RES1               0.0000
     10 C10         -9.0449   7.6735  73.1409 C.ar           1 RES1               0.0000
     11 C11         -9.3655   8.6974  72.2736 C.ar           1 RES1               0.0000
     12 N12        -10.7370  12.4706  67.1195 N.am           1 RES1               0.0000
     13 C13        -11.7529  13.3156  66.4806 C.3            1 RES1               0.0000
     14 C14        -11.0308  14.3483  65.6613 C.3            1 RES1               0.0000
     15 C15        -10.1641  13.7339  64.5929 C.3            1 RES1               0.0000
     16 C16        -10.8041  12.5897  63.8818 C.3            1 RES1               0.0000
     17 C17        -12.2888  12.6340  64.1240 C.3            1 RES1               0.0000
     18 C18        -12.6459  12.5229  65.5797 C.3            1 RES1               0.0000
     19 H19         -9.1224  10.7634  68.4130 H              1 RES1               0.0000
     20 H20         -9.6759   8.7817  69.5690 H              1 RES1               0.0000
     21 H21        -11.3353   8.8219  68.9441 H              1 RES1               0.0000
     22 H22        -10.5490  10.8203  71.0804 H              1 RES1               0.0000
     23 H23        -12.1320   9.9216  70.8575 H              1 RES1               0.0000
     24 H24        -12.5596   7.8156  71.6778 H              1 RES1               0.0000
     25 H25        -11.9579   6.0079  73.2229 H              1 RES1               0.0000
     26 H26         -8.0305   7.6634  73.5409 H              1 RES1               0.0000
     27 H27         -8.6457   9.4683  71.9925 H              1 RES1               0.0000
     28 H28         -9.7352  12.6759  66.9558 H              1 RES1               0.0000
     29 H29        -12.3321  13.8521  67.2564 H              1 RES1               0.0000
     30 H30        -10.3832  14.9738  66.2959 H              1 RES1               0.0000
     31 H31        -11.7951  14.9671  65.1370 H              1 RES1               0.0000
     32 H32         -9.1443  13.4915  64.9972 H              1 RES1               0.0000
     33 H33         -9.9737  14.5504  63.8403 H              1 RES1               0.0000
     34 H34        -10.6559  12.6746  62.7804 H              1 RES1               0.0000
     35 H35        -10.3575  11.5973  64.1561 H              1 RES1               0.0000
     36 H36        -12.6770  13.5498  63.6717 H              1 RES1               0.0000
     37 H37        -12.7352  11.7483  63.6119 H              1 RES1               0.0000
     38 H38        -12.7087  11.4685  65.9328 H              1 RES1               0.0000
     39 H39        -13.6884  12.9373  65.7035 H              1 RES1               0.0000
     40 ****       -12.5559  10.3796  68.7296 LP             1 RES1               0.0000
     41 ****       -12.9846  11.7144  67.7125 LP             1 RES1               0.0000
     42 ****        -9.7102   6.0369  74.0717 LP             1 RES1               0.0000
@<TRIPOS>BOND
    1    1    2 2     
    2    2    3 am    
    3    3    4 1     
    4    4    5 1     
    5    5    6 1     
    6    6    7 ar    
    7    7    8 ar    
    8    8    9 ar    
    9    9   10 ar    
   10   10   11 ar    
   11    2   12 am    
   12   12   13 1     
   13   13   14 1     
   14   14   15 1     
   15   15   16 1     
   16   16   17 1     
   17   17   18 1     
   18    6   11 ar    
   19   18   13 1     
   20    3   19 1     
   21    4   20 1     
   22    4   21 1     
   23    5   22 1     
   24    5   23 1     
   25    7   24 1     
   26    8   25 1     
   27   10   26 1     
   28   11   27 1     
   29   12   28 1     
   30   13   29 1     
   31   14   30 1     
   32   14   31 1     
   33   15   32 1     
   34   15   33 1     
   35   16   34 1     
   36   16   35 1     
   37   17   36 1     
   38   17   37 1     
   39   18   38 1     
   40   18   39 1     
   41    1   40 1     
   42    1   41 1     
   43    9   42 1     
@<TRIPOS>SUBSTRUCTURE
      1 RES1           1
@<TRIPOS>SET
LONE_PAIRS      STATIC     ATOMS    <user>   **** ""
3 40 41 42
DONOR_HYDROGENS      STATIC     ATOMS    <user>   **** ""
2 19 28
ATOM$BLUE        STATIC     ATOMS    COLORGROUP SYSTEM
3 40 41 42
ATOM$RED        STATIC     ATOMS    COLORGROUP SYSTEM
2 19 28
@<TRIPOS>COMMENT
> <Gold.Version>
2022.1.0

> <Gold.Id.Protein>
6LU7|6LU7_protein|mol2

> <Gold.Protein.RotatedTorsions>
[ 3973 1471 1470 1467 ] final -136.26 input   60.00 | X-H torsion
[ 3372  414  413  411 ] final   95.69 input   60.00 | X-H torsion
[ 4268 1114 1113 1110 ] final  139.19 input   59.99 | X-H torsion
[ 4409  924  923  921 ] final -153.47 input   59.99 | X-H torsion
[ 4183 1244 1243 1241 ] final -130.91 input   59.99 | X-H torsion
[ 3800  178  177  174 ] final -150.97 input   60.00 | X-H torsion
[ 3793  171  170  167 ] final  109.36 input   60.00 | X-H torsion
[ 3576  185  184  181 ] final  -37.71 input   60.00 | X-H torsion
[ 3523  346  345  342 ] final   65.48 input   60.01 | X-H torsion
[ 3515  339  338  335 ] final -108.80 input   60.00 | X-H torsion
[ 3663  154  153  150 ] final  -61.77 input   60.00 | X-H torsion
[ 4280 1130 1129 1126 ] final  -52.98 input   60.00 | X-H torsion

> <Gold.Protein.ActiveResidues>
 VAL20   THR21   CYS22   GLY23   THR24   THR25   THR26   LEU27   ASN28   PRO39  
 ARG40   HIS41   VAL42   CYS44   THR45   SER46   ASP48   MET49   LEU50   PRO52  
 TYR54   TYR118  ASN119  ILE136  GLY138  SER139  PHE140  LEU141  ASN142  GLY143 
 SER144  CYS145  GLY146  SER147  TYR161  HIS163  HIS164  MET165  GLU166  LEU167 
 PRO168  THR169  GLY170  VAL171  HIS172  ALA173  PHE181  PHE185  VAL186  ASP187 
 ARG188  GLN189  THR190  ALA191  GLN192  ALA193 

> <Gold.Protein.RotatedAtoms>
  -13.9921   17.5019   76.2627 H   0  0  0  0  0  0  0  0  0  0  0  0  # atno 3372 bound_to 414 
   -2.8026   20.8435   75.6432 H   0  0  0  0  0  0  0  0  0  0  0  0  # atno 3515 bound_to 339 
   -2.7781   18.4991   73.1781 H   0  0  0  0  0  0  0  0  0  0  0  0  # atno 3523 bound_to 346 
   -8.5888   25.2387   63.6442 H   0  0  0  0  0  0  0  0  0  0  0  0  # atno 3576 bound_to 185 
   -7.5730   28.2108   65.5261 H   0  0  0  0  0  0  0  0  0  0  0  0  # atno 3663 bound_to 154 
   -2.6461   23.3850   71.7625 H   0  0  0  0  0  0  0  0  0  0  0  0  # atno 3793 bound_to 171 
   -7.6067   22.6013   72.1315 H   0  0  0  0  0  0  0  0  0  0  0  0  # atno 3800 bound_to 178 
  -15.3865    8.8598   78.3494 H   0  0  0  0  0  0  0  0  0  0  0  0  # atno 3973 bound_to 1471
  -19.9185   13.9180   63.8130 H   0  0  0  0  0  0  0  0  0  0  0  0  # atno 4183 bound_to 1244
  -13.9690   15.4493   60.8864 H   0  0  0  0  0  0  0  0  0  0  0  0  # atno 4268 bound_to 1114
  -16.3910   20.1918   58.3314 H   0  0  0  0  0  0  0  0  0  0  0  0  # atno 4280 bound_to 1130
  -11.2417   15.1669   58.1023 H   0  0  0  0  0  0  0  0  0  0  0  0  # atno 4409 bound_to 924 
  -15.6501    7.3333   77.8511 LP  0  0  0  0  0  0  0  0  0  0  0  0  # atno 4696 bound_to 1471
  -14.9974    8.4275   76.8296 LP  0  0  0  0  0  0  0  0  0  0  0  0  # atno 4697 bound_to 1471
  -14.6283   18.3148   75.0047 LP  0  0  0  0  0  0  0  0  0  0  0  0  # atno 4731 bound_to 414 
  -15.4807   17.1230   75.7255 LP  0  0  0  0  0  0  0  0  0  0  0  0  # atno 4732 bound_to 414 
  -13.5131   16.4580   62.0791 LP  0  0  0  0  0  0  0  0  0  0  0  0  # atno 4733 bound_to 1114
  -12.4277   15.4391   61.4082 LP  0  0  0  0  0  0  0  0  0  0  0  0  # atno 4734 bound_to 1114
  -10.5307   14.9245   56.6588 LP  0  0  0  0  0  0  0  0  0  0  0  0  # atno 4763 bound_to 924 
  -12.0925   15.3954   56.7341 LP  0  0  0  0  0  0  0  0  0  0  0  0  # atno 4764 bound_to 924 
  -20.4955   12.6575   62.9610 LP  0  0  0  0  0  0  0  0  0  0  0  0  # atno 4771 bound_to 1244
  -20.9564   12.8779   64.5120 LP  0  0  0  0  0  0  0  0  0  0  0  0  # atno 4772 bound_to 1244
   -6.8096   24.0082   72.3144 LP  0  0  0  0  0  0  0  0  0  0  0  0  # atno 4775 bound_to 178 
   -6.1942   22.8362   71.3583 LP  0  0  0  0  0  0  0  0  0  0  0  0  # atno 4776 bound_to 178 
   -3.4478   24.6925   72.3063 LP  0  0  0  0  0  0  0  0  0  0  0  0  # atno 4779 bound_to 171 
   -1.8676   24.4919   72.6661 LP  0  0  0  0  0  0  0  0  0  0  0  0  # atno 4780 bound_to 171 
   -7.1799   25.8054   63.0597 LP  0  0  0  0  0  0  0  0  0  0  0  0  # atno 4783 bound_to 185 
   -8.1783   26.7936   63.8923 LP  0  0  0  0  0  0  0  0  0  0  0  0  # atno 4784 bound_to 185 
   -3.5054   17.1496   72.6323 LP  0  0  0  0  0  0  0  0  0  0  0  0  # atno 4785 bound_to 346 
   -1.8799   17.2020   72.7793 LP  0  0  0  0  0  0  0  0  0  0  0  0  # atno 4786 bound_to 346 
   -3.0085   22.3025   74.9525 LP  0  0  0  0  0  0  0  0  0  0  0  0  # atno 4787 bound_to 339 
   -3.6597   20.9716   74.2659 LP  0  0  0  0  0  0  0  0  0  0  0  0  # atno 4788 bound_to 339 
   -6.8627   29.6098   65.0943 LP  0  0  0  0  0  0  0  0  0  0  0  0  # atno 4797 bound_to 154 
   -8.4909   29.4843   65.0975 LP  0  0  0  0  0  0  0  0  0  0  0  0  # atno 4798 bound_to 154 

> <Gold.Score>
     Score     S(PLP)   S(hbond)     S(cho)   S(metal)  DE(clash)   DE(tors)     intcor
     38.95     -34.98       1.00       0.74       0.00       0.00       0.65       0.05

> <Gold.PLP.Fitness>
38.9498

> <Gold.PLP.PLP>
-34.9843

> <Gold.PLP.part.hbond>
-1.0000

> <Gold.PLP.part.metal>
0.0000

> <Gold.PLP.part.buried>
-3.2655

> <Gold.PLP.part.nonpolar>
-31.4373

> <Gold.PLP.part.repulsive>
0.2398

> <Gold.PLP.ligand.clash>
0.0000

> <Gold.PLP.ligand.torsion>
0.6524

> <Gold.PLP.Chemscore.Hbond>
1.0000

> <Gold.PLP.Chemscore.CHOScore>
0.7408

> <Gold.PLP.Chemscore.Metal>
0.0000

> <Gold.Chemscore.Hbonds>
donor molecule, donor type, donor heavy atom, donor atom, acceptor molecule, acceptor atom, score
      P1  H  1281  4132       L1     1  1.00
      L1  C     8    25       P1  1469  0.74

> <Gold.PLP.Chemscore.Internal.Correction>
0.0480

