#       Name:                unknown
#       Creating user name   williammccorkindale
#       Creation time:       Tue Jun  7 14:55:35 2022


#       File generated by GOLD software.
#

@<TRIPOS>MOLECULE
unknown|prepared_Mpro-x0104|mol2|1|dock1
    31    32     1
SMALL
NO_CHARGES


@<TRIPOS>ATOM
      1 C1          -7.9838  19.8034  66.3993 C.3            1 RES1               0.0000
      2 C2          -8.6833  18.5126  66.6483 C.2            1 RES1               0.0000
      3 O3          -8.8600  17.6606  65.7559 O.2            1 RES1               0.0000
      4 N4          -9.1860  18.2002  67.9450 N.am           1 RES1               0.0000
      5 C5          -9.8665  16.9443  68.1848 C.3            1 RES1               0.0000
      6 C6         -10.5035  17.0116  69.5512 C.3            1 RES1               0.0000
      7 C7         -11.3864  15.8608  69.8198 C.2            1 RES1               0.0000
      8 C8         -11.8708  14.8931  68.9675 C.2            1 RES1               0.0000
      9 N9         -12.6406  14.0465  69.6647 N.pl3          1 RES1               0.0000
     10 C10        -12.6919  14.4162  70.9771 C.ar           1 RES1               0.0000
     11 C11        -13.3369  13.8767  72.0672 C.ar           1 RES1               0.0000
     12 C12        -13.1848  14.5021  73.2865 C.ar           1 RES1               0.0000
     13 C13        -12.4146  15.6363  73.4388 C.ar           1 RES1               0.0000
     14 F14        -12.2982  16.2100  74.6526 F              1 RES1               0.0000
     15 C15        -11.7897  16.1373  72.3211 C.ar           1 RES1               0.0000
     16 C16        -11.9017  15.5547  71.0601 C.ar           1 RES1               0.0000
     17 H17         -8.6672  20.6443  66.6204 H              1 RES1               0.0000
     18 H18         -7.6533  19.8095  65.3256 H              1 RES1               0.0000
     19 H19         -7.0568  19.9003  67.0003 H              1 RES1               0.0000
     20 H20         -9.0472  18.8998  68.7039 H              1 RES1               0.0000
     21 H21         -9.1886  16.0712  68.1299 H              1 RES1               0.0000
     22 H22        -10.6232  16.8026  67.3805 H              1 RES1               0.0000
     23 H23        -11.0897  17.9410  69.6911 H              1 RES1               0.0000
     24 H24         -9.6702  17.0702  70.2919 H              1 RES1               0.0000
     25 H25        -11.6444  14.8588  67.9279 H              1 RES1               0.0000
     26 H26        -13.1198  13.2334  69.2446 H              1 RES1               0.0000
     27 H27        -13.9491  12.9970  72.0068 H              1 RES1               0.0000
     28 H28        -13.6853  14.0911  74.1626 H              1 RES1               0.0000
     29 H29        -11.1668  17.0371  72.3983 H              1 RES1               0.0000
     30 ****        -8.5265  17.8312  64.8287 LP             1 RES1               0.0000
     31 ****        -9.3353  16.8065  65.9671 LP             1 RES1               0.0000
@<TRIPOS>BOND
    1    1    2 1     
    2    2    3 2     
    3    2    4 am    
    4    4    5 1     
    5    5    6 1     
    6    6    7 1     
    7    7    8 2     
    8    8    9 1     
    9    9   10 1     
   10   10   11 ar    
   11   11   12 ar    
   12   12   13 ar    
   13   13   14 1     
   14   13   15 ar    
   15   15   16 ar    
   16   16    7 1     
   17   10   16 ar    
   18    1   17 1     
   19    1   18 1     
   20    1   19 1     
   21    4   20 1     
   22    5   21 1     
   23    5   22 1     
   24    6   23 1     
   25    6   24 1     
   26    8   25 1     
   27    9   26 1     
   28   11   27 1     
   29   12   28 1     
   30   15   29 1     
   31    3   30 1     
   32    3   31 1     
@<TRIPOS>SUBSTRUCTURE
      1 RES1           1
@<TRIPOS>SET
LONE_PAIRS      STATIC     ATOMS    <user>   **** ""
2 30 31
DONOR_HYDROGENS      STATIC     ATOMS    <user>   **** ""
2 20 26
ATOM$BLUE        STATIC     ATOMS    COLORGROUP SYSTEM
2 30 31
ATOM$RED        STATIC     ATOMS    COLORGROUP SYSTEM
2 20 26
@<TRIPOS>COMMENT
> <Gold.Version>
2022.1.0

> <Gold.Id.Protein>
6LU7|6LU7_protein|mol2

> <Gold.Protein.RotatedTorsions>
[ 3973 1471 1470 1467 ] final  148.34 input   60.00 | X-H torsion
[ 3372  414  413  411 ] final   51.54 input   60.00 | X-H torsion
[ 4268 1114 1113 1110 ] final  -63.14 input   59.99 | X-H torsion
[ 4409  924  923  921 ] final -145.29 input   59.99 | X-H torsion
[ 4183 1244 1243 1241 ] final   31.34 input   59.99 | X-H torsion
[ 3800  178  177  174 ] final   33.43 input   60.00 | X-H torsion
[ 3793  171  170  167 ] final  -31.96 input   60.00 | X-H torsion
[ 3576  185  184  181 ] final  145.48 input   60.00 | X-H torsion
[ 3523  346  345  342 ] final   53.19 input   60.01 | X-H torsion
[ 3515  339  338  335 ] final  -56.31 input   60.00 | X-H torsion
[ 3663  154  153  150 ] final  -77.14 input   60.00 | X-H torsion
[ 4280 1130 1129 1126 ] final -119.12 input   60.00 | X-H torsion

> <Gold.Protein.ActiveResidues>
 VAL20   THR21   CYS22   GLY23   THR24   THR25   THR26   LEU27   ASN28   PRO39  
 ARG40   HIS41   VAL42   CYS44   THR45   SER46   ASP48   MET49   LEU50   PRO52  
 TYR54   TYR118  ASN119  ILE136  GLY138  SER139  PHE140  LEU141  ASN142  GLY143 
 SER144  CYS145  GLY146  SER147  TYR161  HIS163  HIS164  MET165  GLU166  LEU167 
 PRO168  THR169  GLY170  VAL171  HIS172  ALA173  PHE181  PHE185  VAL186  ASP187 
 ARG188  GLN189  THR190  ALA191  GLN192  ALA193 

> <Gold.Protein.RotatedAtoms>
  -13.8514   18.0188   75.8066 H   0  0  0  0  0  0  0  0  0  0  0  0  # atno 3372 bound_to 414 
   -3.2376   20.4448   75.0622 H   0  0  0  0  0  0  0  0  0  0  0  0  # atno 3515 bound_to 339 
   -2.9751   18.4725   73.1530 H   0  0  0  0  0  0  0  0  0  0  0  0  # atno 3523 bound_to 346 
   -7.3464   26.6163   63.3967 H   0  0  0  0  0  0  0  0  0  0  0  0  # atno 3576 bound_to 185 
   -7.3281   28.2616   65.5155 H   0  0  0  0  0  0  0  0  0  0  0  0  # atno 3663 bound_to 154 
   -3.2252   24.8879   72.4885 H   0  0  0  0  0  0  0  0  0  0  0  0  # atno 3793 bound_to 171 
   -6.1678   23.7444   71.7791 H   0  0  0  0  0  0  0  0  0  0  0  0  # atno 3800 bound_to 178 
  -15.7163    7.7654   78.4146 H   0  0  0  0  0  0  0  0  0  0  0  0  # atno 3973 bound_to 1471
  -21.0500   12.4645   63.9838 H   0  0  0  0  0  0  0  0  0  0  0  0  # atno 4183 bound_to 1244
  -12.4533   15.8686   61.8357 H   0  0  0  0  0  0  0  0  0  0  0  0  # atno 4268 bound_to 1114
  -16.3173   19.2383   57.9723 H   0  0  0  0  0  0  0  0  0  0  0  0  # atno 4280 bound_to 1130
  -11.3696   15.2052   58.0989 H   0  0  0  0  0  0  0  0  0  0  0  0  # atno 4409 bound_to 924 
  -15.2036    7.7435   76.8703 LP  0  0  0  0  0  0  0  0  0  0  0  0  # atno 4696 bound_to 1471
  -15.1118    9.1196   77.7448 LP  0  0  0  0  0  0  0  0  0  0  0  0  # atno 4697 bound_to 1471
  -15.2490   17.9745   74.9741 LP  0  0  0  0  0  0  0  0  0  0  0  0  # atno 4731 bound_to 414 
  -15.0016   16.9427   76.2154 LP  0  0  0  0  0  0  0  0  0  0  0  0  # atno 4732 bound_to 414 
  -13.4518   15.1557   60.7667 LP  0  0  0  0  0  0  0  0  0  0  0  0  # atno 4733 bound_to 1114
  -14.0154   16.3191   61.7645 LP  0  0  0  0  0  0  0  0  0  0  0  0  # atno 4734 bound_to 1114
  -10.4686   14.9080   56.7769 LP  0  0  0  0  0  0  0  0  0  0  0  0  # atno 4763 bound_to 924 
  -12.0259   15.3733   56.6194 LP  0  0  0  0  0  0  0  0  0  0  0  0  # atno 4764 bound_to 924 
  -20.2326   13.8078   64.4028 LP  0  0  0  0  0  0  0  0  0  0  0  0  # atno 4771 bound_to 1244
  -20.0798   13.1914   62.8983 LP  0  0  0  0  0  0  0  0  0  0  0  0  # atno 4772 bound_to 1244
   -6.8704   22.2989   71.5240 LP  0  0  0  0  0  0  0  0  0  0  0  0  # atno 4775 bound_to 178 
   -7.5823   23.3944   72.5037 LP  0  0  0  0  0  0  0  0  0  0  0  0  # atno 4776 bound_to 178 
   -1.7533   24.1951   72.5227 LP  0  0  0  0  0  0  0  0  0  0  0  0  # atno 4779 bound_to 171 
   -2.9789   23.4757   71.7185 LP  0  0  0  0  0  0  0  0  0  0  0  0  # atno 4780 bound_to 171 
   -8.7738   26.1333   64.0109 LP  0  0  0  0  0  0  0  0  0  0  0  0  # atno 4783 bound_to 185 
   -7.8357   25.0782   63.1903 LP  0  0  0  0  0  0  0  0  0  0  0  0  # atno 4784 bound_to 185 
   -3.3771   17.0001   72.5886 LP  0  0  0  0  0  0  0  0  0  0  0  0  # atno 4785 bound_to 346 
   -1.8099   17.3782   72.8483 LP  0  0  0  0  0  0  0  0  0  0  0  0  # atno 4786 bound_to 346 
   -2.6714   21.8776   75.5860 LP  0  0  0  0  0  0  0  0  0  0  0  0  # atno 4787 bound_to 339 
   -3.5587   21.7980   74.2175 LP  0  0  0  0  0  0  0  0  0  0  0  0  # atno 4788 bound_to 339 
   -7.0311   29.7874   65.0339 LP  0  0  0  0  0  0  0  0  0  0  0  0  # atno 4797 bound_to 154 
   -8.5691   29.2554   65.1686 LP  0  0  0  0  0  0  0  0  0  0  0  0  # atno 4798 bound_to 154 

> <Gold.Score>
     Score     S(PLP)   S(hbond)     S(cho)   S(metal)  DE(clash)   DE(tors)     intcor
     50.33     -47.77       0.98       0.00       0.00       0.00       0.20       0.03

> <Gold.PLP.Fitness>
50.3251

> <Gold.PLP.PLP>
-47.7660

> <Gold.PLP.part.hbond>
-1.6352

> <Gold.PLP.part.metal>
0.0000

> <Gold.PLP.part.buried>
-5.1780

> <Gold.PLP.part.nonpolar>
-41.4468

> <Gold.PLP.part.repulsive>
0.0413

> <Gold.PLP.ligand.clash>
0.0000

> <Gold.PLP.ligand.torsion>
0.1970

> <Gold.PLP.Chemscore.Hbond>
0.9760

> <Gold.PLP.Chemscore.CHOScore>
0.0000

> <Gold.PLP.Chemscore.Metal>
0.0000

> <Gold.Chemscore.Hbonds>
donor molecule, donor type, donor heavy atom, donor atom, acceptor molecule, acceptor atom, score
      P1  H  1105  4261       L1     3  0.98

> <Gold.PLP.Chemscore.Internal.Correction>
0.0252

