#       Name:                unknown
#       Creating user name   williammccorkindale
#       Creation time:       Tue Jun  7 14:55:35 2022


#       File generated by GOLD software.
#

@<TRIPOS>MOLECULE
unknown|prepared_Mpro-x0426|mol2|1|dock4
    34    35     1
SMALL
NO_CHARGES


@<TRIPOS>ATOM
      1 F1         -11.8873  15.7272  64.6010 F              1 RES1               0.0000
      2 C2         -11.8899  14.4068  64.8518 C.ar           1 RES1               0.0000
      3 C3         -12.2691  13.6108  63.7590 C.ar           1 RES1               0.0000
      4 C4         -12.3288  12.2391  63.8321 C.ar           1 RES1               0.0000
      5 C5         -11.9973  11.6675  65.0373 C.ar           1 RES1               0.0000
      6 C6         -11.6258  12.4459  66.1085 C.ar           1 RES1               0.0000
      7 C7         -11.5655  13.8435  66.0319 C.ar           1 RES1               0.0000
      8 C8         -11.1663  14.6111  67.1961 C.2            1 RES1               0.0000
      9 O9         -11.2108  15.8974  67.1477 O.2            1 RES1               0.0000
     10 N10        -10.7168  14.1006  68.4258 N.am           1 RES1               0.0000
     11 C11        -10.3416  14.9968  69.5301 C.3            1 RES1               0.0000
     12 C12        -11.4964  15.7298  70.1067 C.3            1 RES1               0.0000
     13 C13        -12.3722  14.9626  70.9939 C.ar           1 RES1               0.0000
     14 C14        -13.2509  15.5893  71.8222 C.ar           1 RES1               0.0000
     15 C15        -14.1053  14.8843  72.6724 C.ar           1 RES1               0.0000
     16 N16        -14.0574  13.5435  72.6723 N.ar           1 RES1               0.0000
     17 C17        -13.2036  12.8911  71.8696 C.ar           1 RES1               0.0000
     18 C18        -12.3571  13.5690  71.0278 C.ar           1 RES1               0.0000
     19 H19        -12.5338  14.0499  62.8001 H              1 RES1               0.0000
     20 H20        -12.6159  11.6101  63.0097 H              1 RES1               0.0000
     21 H21        -12.0249  10.5863  65.1591 H              1 RES1               0.0000
     22 H22        -11.3742  11.9420  67.0366 H              1 RES1               0.0000
     23 H23        -10.6476  13.0811  68.5620 H              1 RES1               0.0000
     24 H24         -9.4906  15.6222  69.2656 H              1 RES1               0.0000
     25 H25         -9.9673  14.2930  70.3318 H              1 RES1               0.0000
     26 H26        -11.0751  16.5710  70.7142 H              1 RES1               0.0000
     27 H27        -12.1326  16.1321  69.2723 H              1 RES1               0.0000
     28 H28        -13.3352  16.6575  71.8785 H              1 RES1               0.0000
     29 H29        -14.7907  15.4155  73.3166 H              1 RES1               0.0000
     30 H30        -13.1756  11.8091  71.8800 H              1 RES1               0.0000
     31 H31        -11.6536  13.0465  70.3657 H              1 RES1               0.0000
     32 ****       -11.5180  16.3560  66.3139 LP             1 RES1               0.0000
     33 ****       -10.9381  16.4375  67.9439 LP             1 RES1               0.0000
     34 ****       -14.6636  13.0260  73.2762 LP             1 RES1               0.0000
@<TRIPOS>BOND
    1    1    2 1     
    2    2    3 ar    
    3    3    4 ar    
    4    4    5 ar    
    5    5    6 ar    
    6    6    7 ar    
    7    7    8 1     
    8    8    9 2     
    9    8   10 am    
   10   10   11 1     
   11   11   12 1     
   12   12   13 1     
   13   13   14 ar    
   14   14   15 ar    
   15   15   16 ar    
   16   16   17 ar    
   17   17   18 ar    
   18    2    7 ar    
   19   13   18 ar    
   20    3   19 1     
   21    4   20 1     
   22    5   21 1     
   23    6   22 1     
   24   10   23 1     
   25   11   24 1     
   26   11   25 1     
   27   12   26 1     
   28   12   27 1     
   29   14   28 1     
   30   15   29 1     
   31   17   30 1     
   32   18   31 1     
   33    9   32 1     
   34    9   33 1     
   35   16   34 1     
@<TRIPOS>SUBSTRUCTURE
      1 RES1           1
@<TRIPOS>SET
LONE_PAIRS      STATIC     ATOMS    <user>   **** ""
3 32 33 34
DONOR_HYDROGENS      STATIC     ATOMS    <user>   **** ""
1 23
ATOM$BLUE        STATIC     ATOMS    COLORGROUP SYSTEM
3 32 33 34
ATOM$RED        STATIC     ATOMS    COLORGROUP SYSTEM
1 23
@<TRIPOS>COMMENT
> <Gold.Version>
2022.1.0

> <Gold.Id.Protein>
6LU7|6LU7_protein|mol2

> <Gold.Protein.RotatedTorsions>
[ 3973 1471 1470 1467 ] final -137.98 input   60.00 | X-H torsion
[ 3372  414  413  411 ] final   -3.01 input   60.00 | X-H torsion
[ 4268 1114 1113 1110 ] final  174.51 input   59.99 | X-H torsion
[ 4409  924  923  921 ] final  -99.66 input   59.99 | X-H torsion
[ 4183 1244 1243 1241 ] final  -36.30 input   59.99 | X-H torsion
[ 3800  178  177  174 ] final -123.99 input   60.00 | X-H torsion
[ 3793  171  170  167 ] final  164.25 input   60.00 | X-H torsion
[ 3576  185  184  181 ] final  -77.78 input   60.00 | X-H torsion
[ 3523  346  345  342 ] final  139.17 input   60.01 | X-H torsion
[ 3515  339  338  335 ] final    9.45 input   60.00 | X-H torsion
[ 3663  154  153  150 ] final    1.55 input   60.00 | X-H torsion
[ 4280 1130 1129 1126 ] final   63.29 input   60.00 | X-H torsion

> <Gold.Protein.ActiveResidues>
 VAL20   THR21   CYS22   GLY23   THR24   THR25   THR26   LEU27   ASN28   PRO39  
 ARG40   HIS41   VAL42   CYS44   THR45   SER46   ASP48   MET49   LEU50   PRO52  
 TYR54   TYR118  ASN119  ILE136  GLY138  SER139  PHE140  LEU141  ASN142  GLY143 
 SER144  CYS145  GLY146  SER147  TYR161  HIS163  HIS164  MET165  GLU166  LEU167 
 PRO168  THR169  GLY170  VAL171  HIS172  ALA173  PHE181  PHE185  VAL186  ASP187 
 ARG188  GLN189  THR190  ALA191  GLN192  ALA193 

> <Gold.Protein.RotatedAtoms>
  -14.3231   18.3447   75.1681 H   0  0  0  0  0  0  0  0  0  0  0  0  # atno 3372 bound_to 414 
   -3.6542   20.9494   74.2844 H   0  0  0  0  0  0  0  0  0  0  0  0  # atno 3515 bound_to 339 
   -1.8429   17.8946   73.0342 H   0  0  0  0  0  0  0  0  0  0  0  0  # atno 3523 bound_to 346 
   -8.0782   25.0395   63.3110 H   0  0  0  0  0  0  0  0  0  0  0  0  # atno 3576 bound_to 185 
   -8.4451   28.6365   65.3708 H   0  0  0  0  0  0  0  0  0  0  0  0  # atno 3663 bound_to 154 
   -1.9083   23.6324   72.1352 H   0  0  0  0  0  0  0  0  0  0  0  0  # atno 3793 bound_to 171 
   -7.3667   22.3559   71.8613 H   0  0  0  0  0  0  0  0  0  0  0  0  # atno 3800 bound_to 178 
  -15.3977    8.8407   78.3666 H   0  0  0  0  0  0  0  0  0  0  0  0  # atno 3973 bound_to 1471
  -20.7634   13.2183   64.6438 H   0  0  0  0  0  0  0  0  0  0  0  0  # atno 4183 bound_to 1244
  -13.4870   15.1729   60.7688 H   0  0  0  0  0  0  0  0  0  0  0  0  # atno 4268 bound_to 1114
  -15.6228   19.7218   59.6420 H   0  0  0  0  0  0  0  0  0  0  0  0  # atno 4280 bound_to 1130
  -11.9831   15.3834   57.7543 H   0  0  0  0  0  0  0  0  0  0  0  0  # atno 4409 bound_to 924 
  -15.6432    7.3262   77.8247 LP  0  0  0  0  0  0  0  0  0  0  0  0  # atno 4696 bound_to 1471
  -14.9931    8.4539   76.8387 LP  0  0  0  0  0  0  0  0  0  0  0  0  # atno 4697 bound_to 1471
  -15.5619   17.3298   75.4569 LP  0  0  0  0  0  0  0  0  0  0  0  0  # atno 4731 bound_to 414 
  -14.2137   17.2593   76.3756 LP  0  0  0  0  0  0  0  0  0  0  0  0  # atno 4732 bound_to 414 
  -13.9910   16.3355   61.7897 LP  0  0  0  0  0  0  0  0  0  0  0  0  # atno 4733 bound_to 1114
  -12.4352   15.8400   61.8160 LP  0  0  0  0  0  0  0  0  0  0  0  0  # atno 4734 bound_to 1114
  -10.4447   14.9141   57.5075 LP  0  0  0  0  0  0  0  0  0  0  0  0  # atno 4763 bound_to 924 
  -11.4319   15.1877   56.2358 LP  0  0  0  0  0  0  0  0  0  0  0  0  # atno 4764 bound_to 924 
  -19.8511   13.7933   63.4252 LP  0  0  0  0  0  0  0  0  0  0  0  0  # atno 4771 bound_to 1244
  -20.7499   12.4468   63.2111 LP  0  0  0  0  0  0  0  0  0  0  0  0  # atno 4772 bound_to 1244
   -7.1874   23.8517   72.4766 LP  0  0  0  0  0  0  0  0  0  0  0  0  # atno 4775 bound_to 178 
   -6.0581   23.2398   71.4682 LP  0  0  0  0  0  0  0  0  0  0  0  0  # atno 4776 bound_to 178 
   -3.4786   23.9520   71.8526 LP  0  0  0  0  0  0  0  0  0  0  0  0  # atno 4779 bound_to 171 
   -2.5801   24.9833   72.7446 LP  0  0  0  0  0  0  0  0  0  0  0  0  # atno 4780 bound_to 171 
   -7.2141   26.4175   63.2632 LP  0  0  0  0  0  0  0  0  0  0  0  0  # atno 4783 bound_to 185 
   -8.6583   26.3820   64.0244 LP  0  0  0  0  0  0  0  0  0  0  0  0  # atno 4784 bound_to 185 
   -3.4393   18.2099   73.0193 LP  0  0  0  0  0  0  0  0  0  0  0  0  # atno 4785 bound_to 346 
   -2.8879   16.7504   72.5372 LP  0  0  0  0  0  0  0  0  0  0  0  0  # atno 4786 bound_to 346 
   -2.7869   20.8631   75.6586 LP  0  0  0  0  0  0  0  0  0  0  0  0  # atno 4787 bound_to 339 
   -3.0237   22.3043   74.9283 LP  0  0  0  0  0  0  0  0  0  0  0  0  # atno 4788 bound_to 339 
   -6.8183   28.6679   65.3953 LP  0  0  0  0  0  0  0  0  0  0  0  0  # atno 4797 bound_to 154 
   -7.6570   29.9974   64.9529 LP  0  0  0  0  0  0  0  0  0  0  0  0  # atno 4798 bound_to 154 

> <Gold.Score>
     Score     S(PLP)   S(hbond)     S(cho)   S(metal)  DE(clash)   DE(tors)     intcor
     47.93     -48.51       0.00       0.00       0.00       0.00       0.32       0.07

> <Gold.PLP.Fitness>
47.9276

> <Gold.PLP.PLP>
-48.5100

> <Gold.PLP.part.hbond>
-0.8485

> <Gold.PLP.part.metal>
0.0000

> <Gold.PLP.part.buried>
-6.6851

> <Gold.PLP.part.nonpolar>
-41.8774

> <Gold.PLP.part.repulsive>
0.2367

> <Gold.PLP.ligand.clash>
0.0000

> <Gold.PLP.ligand.torsion>
0.3249

> <Gold.PLP.Chemscore.Hbond>
0.0000

> <Gold.PLP.Chemscore.CHOScore>
0.0000

> <Gold.PLP.Chemscore.Metal>
0.0000

> <Gold.PLP.Chemscore.Internal.Correction>
0.0673

