unknown|prepared_Mpro-x0874|sdf|1|dock2
  -GOLD-   5 72214353D 1   1.00000     0.00000

 26 27  0  0  0  0  0  0  0  0  1 V2000
   -9.7039   15.1201   69.7095 O   0  0  0  0  0  0  0  0  0  0  0  0
  -10.6746   15.8214   69.3697 C   0  0  0  0  0  0  0  0  0  0  0  0
  -11.9658   15.2588   68.9858 C   0  0  2  0  0  0  0  0  0  0  0  0
  -12.6348   14.3673   69.9752 C   0  0  2  0  0  0  0  0  0  0  0  0
  -12.7098   14.9529   71.3645 C   0  0  0  0  0  0  0  0  0  0  0  0
  -11.5855   15.0583   72.1269 C   0  0  0  0  0  0  0  0  0  0  0  0
  -12.1506   15.7809   73.5615 S   0  0  0  0  0  0  0  0  0  0  0  0
  -13.7985   15.9336   73.1633 C   0  0  0  0  0  0  0  0  0  0  0  0
  -13.8667   15.4074   71.8981 C   0  0  0  0  0  0  0  0  0  0  0  0
  -11.8864   13.0895   69.9059 C   0  0  0  0  0  0  0  0  0  0  0  0
  -11.7823   12.9024   68.3857 C   0  0  0  0  0  0  0  0  0  0  0  0
  -11.7048   14.2970   67.8252 C   0  0  0  0  0  0  0  0  0  0  0  0
  -10.5279   17.2336   69.3523 N   0  0  0  0  0  0  0  0  0  0  0  0
  -12.6972   16.0442   68.6620 H   0  0  0  0  0  0  0  0  0  0  0  0
  -13.6823   14.2376   69.6082 H   0  0  0  0  0  0  0  0  0  0  0  0
  -10.5577   14.7448   71.8634 H   0  0  0  0  0  0  0  0  0  0  0  0
  -14.6220   16.3533   73.7695 H   0  0  0  0  0  0  0  0  0  0  0  0
  -14.8662   15.4005   71.3948 H   0  0  0  0  0  0  0  0  0  0  0  0
  -10.9038   13.1152   70.3720 H   0  0  0  0  0  0  0  0  0  0  0  0
  -12.4484   12.2459   70.3614 H   0  0  0  0  0  0  0  0  0  0  0  0
  -10.8944   12.2904   68.1247 H   0  0  0  0  0  0  0  0  0  0  0  0
  -12.7291   12.4332   68.0417 H   0  0  0  0  0  0  0  0  0  0  0  0
  -12.4891   14.4927   67.0698 H   0  0  0  0  0  0  0  0  0  0  0  0
  -10.6905   14.4941   67.3675 H   0  0  0  0  0  0  0  0  0  0  0  0
   -9.6324   17.7229   69.6140 H   0  0  0  0  0  0  0  0  0  0  0  0
  -11.3080   17.8823   69.0755 H   0  0  0  0  0  0  0  0  0  0  0  0
  1  2  2  0  0  0  0
  2  3  1  0  0  0  0
  3  4  1  0  0  0  0
  4  5  1  0  0  0  0
  5  6  2  0  0  0  0
  6  7  1  0  0  0  0
  7  8  1  0  0  0  0
  8  9  2  0  0  0  0
  4 10  1  0  0  0  0
 10 11  1  0  0  0  0
 11 12  1  0  0  0  0
  2 13  1  0  0  0  0
 12  3  1  0  0  0  0
  9  5  1  0  0  0  0
  3 14  1  0  0  0  0
  4 15  1  0  0  0  0
  6 16  1  0  0  0  0
  8 17  1  0  0  0  0
  9 18  1  0  0  0  0
 10 19  1  0  0  0  0
 10 20  1  0  0  0  0
 11 21  1  0  0  0  0
 11 22  1  0  0  0  0
 12 23  1  0  0  0  0
 12 24  1  0  0  0  0
 13 25  1  0  0  0  0
 13 26  1  0  0  0  0
M  END
> <Gold.Version>
2022.1.0

> <Gold.Id.Protein>
6LU7|6LU7_protein|mol2

> <Gold.PLP.Fitness>
40.6041

> <Gold.PLP.PLP>
-34.7140

> <Gold.PLP.part.hbond>
0.0000

> <Gold.PLP.part.metal>
0.0000

> <Gold.PLP.part.buried>
-2.6033

> <Gold.PLP.part.nonpolar>
-33.8521

> <Gold.PLP.part.repulsive>
0.4333

> <Gold.PLP.ligand.clash>
0.0000

> <Gold.PLP.ligand.torsion>
0.2920

> <Gold.PLP.Chemscore.Hbond>
0.0000

> <Gold.PLP.Chemscore.CHOScore>
2.1419

> <Gold.PLP.Chemscore.Metal>
0.0000

> <Gold.Chemscore.Hbonds>
donor molecule, donor type, donor heavy atom, donor atom, acceptor molecule, acceptor atom, score
      L1  C     6    16       P1  1464  1.00
      L1  C     8    17       P1  1441  0.56
      L1  C     8    17       P1   414  0.58

> <Gold.PLP.Chemscore.Internal.Correction>
0.0483

> <Gold.Protein.RotatedTorsions>
[ 3973 1471 1470 1467 ] final   99.96 input   60.00 | X-H torsion
[ 3372  414  413  411 ] final  100.24 input   60.00 | X-H torsion
[ 4268 1114 1113 1110 ] final -151.08 input   59.99 | X-H torsion
[ 4409  924  923  921 ] final  143.35 input   59.99 | X-H torsion
[ 4183 1244 1243 1241 ] final -119.98 input   59.99 | X-H torsion
[ 3800  178  177  174 ] final   76.78 input   60.00 | X-H torsion
[ 3793  171  170  167 ] final  112.35 input   60.00 | X-H torsion
[ 3576  185  184  181 ] final   12.89 input   60.00 | X-H torsion
[ 3523  346  345  342 ] final  123.38 input   60.01 | X-H torsion
[ 3515  339  338  335 ] final -145.03 input   60.00 | X-H torsion
[ 3663  154  153  150 ] final   65.10 input   60.00 | X-H torsion
[ 4280 1130 1129 1126 ] final -143.46 input   60.00 | X-H torsion

> <Gold.Protein.ActiveResidues>
 VAL20   THR21   CYS22   GLY23   THR24   THR25   THR26   LEU27   ASN28   PRO39  
 ARG40   HIS41   VAL42   CYS44   THR45   SER46   ASP48   MET49   LEU50   PRO52  
 TYR54   TYR118  ASN119  ILE136  GLY138  SER139  PHE140  LEU141  ASN142  GLY143 
 SER144  CYS145  GLY146  SER147  TYR161  HIS163  HIS164  MET165  GLU166  LEU167 
 PRO168  THR169  GLY170  VAL171  HIS172  ALA173  PHE181  PHE185  VAL186  ASP187 
 ARG188  GLN189  THR190  ALA191  GLN192  ALA193 

> <Gold.Protein.RotatedAtoms>
  -14.0331   17.4481   76.2936 H   0  0  0  0  0  0  0  0  0  0  0  0  # atno 3372 bound_to 414 
   -2.6506   21.3965   75.7431 H   0  0  0  0  0  0  0  0  0  0  0  0  # atno 3515 bound_to 339 
   -1.9621   18.1119   73.1030 H   0  0  0  0  0  0  0  0  0  0  0  0  # atno 3523 bound_to 346 
   -8.8099   25.9340   63.9726 H   0  0  0  0  0  0  0  0  0  0  0  0  # atno 3576 bound_to 185 
   -8.4302   29.5760   65.0720 H   0  0  0  0  0  0  0  0  0  0  0  0  # atno 3663 bound_to 154 
   -2.5990   23.3801   71.7739 H   0  0  0  0  0  0  0  0  0  0  0  0  # atno 3793 bound_to 171 
   -6.6403   24.0128   72.2070 H   0  0  0  0  0  0  0  0  0  0  0  0  # atno 3800 bound_to 178 
  -15.6304    7.3242   77.7927 H   0  0  0  0  0  0  0  0  0  0  0  0  # atno 3973 bound_to 1471
  -19.9783   13.9281   63.9806 H   0  0  0  0  0  0  0  0  0  0  0  0  # atno 4183 bound_to 1244
  -12.9510   15.1190   60.8975 H   0  0  0  0  0  0  0  0  0  0  0  0  # atno 4268 bound_to 1114
  -16.1622   18.9014   58.1078 H   0  0  0  0  0  0  0  0  0  0  0  0  # atno 4280 bound_to 1130
  -10.4679   14.9242   57.5505 H   0  0  0  0  0  0  0  0  0  0  0  0  # atno 4409 bound_to 924 
  -14.9882    8.4854   76.8506 LP  0  0  0  0  0  0  0  0  0  0  0  0  # atno 4696 bound_to 1471
  -15.4136    8.8220   78.3908 LP  0  0  0  0  0  0  0  0  0  0  0  0  # atno 4697 bound_to 1471
  -14.5600   18.3299   75.0315 LP  0  0  0  0  0  0  0  0  0  0  0  0  # atno 4731 bound_to 414 
  -15.5076   17.1620   75.6676 LP  0  0  0  0  0  0  0  0  0  0  0  0  # atno 4732 bound_to 414 
  -14.2147   16.0189   61.3888 LP  0  0  0  0  0  0  0  0  0  0  0  0  # atno 4733 bound_to 1114
  -12.7512   16.2109   62.0874 LP  0  0  0  0  0  0  0  0  0  0  0  0  # atno 4734 bound_to 1114
  -11.3849   15.1735   56.2295 LP  0  0  0  0  0  0  0  0  0  0  0  0  # atno 4763 bound_to 924 
  -12.0177   15.3908   57.7192 LP  0  0  0  0  0  0  0  0  0  0  0  0  # atno 4764 bound_to 924 
  -20.3805   12.7807   62.8992 LP  0  0  0  0  0  0  0  0  0  0  0  0  # atno 4771 bound_to 1244
  -21.0111   12.7445   64.4051 LP  0  0  0  0  0  0  0  0  0  0  0  0  # atno 4772 bound_to 1244
   -6.3077   22.6703   71.3495 LP  0  0  0  0  0  0  0  0  0  0  0  0  # atno 4775 bound_to 178 
   -7.6692   22.7527   72.2473 LP  0  0  0  0  0  0  0  0  0  0  0  0  # atno 4776 bound_to 178 
   -3.4702   24.6583   72.2790 LP  0  0  0  0  0  0  0  0  0  0  0  0  # atno 4779 bound_to 171 
   -1.8928   24.5311   72.6820 LP  0  0  0  0  0  0  0  0  0  0  0  0  # atno 4780 bound_to 171 
   -7.6591   25.1605   63.1208 LP  0  0  0  0  0  0  0  0  0  0  0  0  # atno 4783 bound_to 185 
   -7.4764   26.7382   63.5004 LP  0  0  0  0  0  0  0  0  0  0  0  0  # atno 4784 bound_to 185 
   -3.5774   18.0074   72.9355 LP  0  0  0  0  0  0  0  0  0  0  0  0  # atno 4785 bound_to 346 
   -2.6298   16.7341   72.5517 LP  0  0  0  0  0  0  0  0  0  0  0  0  # atno 4786 bound_to 346 
   -3.3308   22.1675   74.4818 LP  0  0  0  0  0  0  0  0  0  0  0  0  # atno 4787 bound_to 339 
   -3.4905   20.5497   74.6360 LP  0  0  0  0  0  0  0  0  0  0  0  0  # atno 4788 bound_to 339 
   -7.6854   28.2016   65.5242 LP  0  0  0  0  0  0  0  0  0  0  0  0  # atno 4797 bound_to 154 
   -6.8048   29.5176   65.1250 LP  0  0  0  0  0  0  0  0  0  0  0  0  # atno 4798 bound_to 154 

$$$$
