#       Name:                xxxx
#       Creating user name   williammccorkindale
#       Creation time:       Tue Jun  7 11:03:36 2022


#       File generated by GOLD software.
#

@<TRIPOS>MOLECULE
xxxx|x0072|mol2|1|dock4
    26    26     1
SMALL
NO_CHARGES


@<TRIPOS>ATOM
      1 C01        -12.5559  12.6163  65.1861 C.3            1 LIG1101            0.0000
      2 S02        -11.5994  12.6405  66.7277 S.o2           1 LIG1101            0.0000
      3 O03        -10.2104  12.2225  66.5153 O.2            1 LIG1101            0.0000
      4 O04        -12.0359  11.5971  67.6399 O.2            1 LIG1101            0.0000
      5 N05        -11.7086  14.1745  67.4622 N.pl3          1 LIG1101            0.0000
      6 C06        -11.8941  14.2047  68.8900 C.3            1 LIG1101            0.0000
      7 C07        -12.0096  15.5973  69.4938 C.3            1 LIG1101            0.0000
      8 C08        -12.3481  15.3601  70.9574 C.ar           1 LIG1101            0.0000
      9 C09        -11.6420  15.9904  71.9736 C.ar           1 LIG1101            0.0000
     10 C10        -11.9996  15.7618  73.2919 C.ar           1 LIG1101            0.0000
     11 C11        -13.0704  14.9339  73.5901 C.ar           1 LIG1101            0.0000
     12 C12        -13.7806  14.3161  72.5692 C.ar           1 LIG1101            0.0000
     13 C13        -13.4159  14.5370  71.2561 C.ar           1 LIG1101            0.0000
     14 H1         -12.5621  11.6065  64.7785 H              1 LIG1101            0.0000
     15 H2         -13.5782  12.9324  65.3883 H              1 LIG1101            0.0000
     16 H3         -12.1015  13.2956  64.4663 H              1 LIG1101            0.0000
     17 H4         -11.6457  15.0286  66.9176 H              1 LIG1101            0.0000
     18 H5         -11.0436  13.7055  69.3519 H              1 LIG1101            0.0000
     19 H6         -12.8066  13.6582  69.1238 H              1 LIG1101            0.0000
     20 H7         -12.8007  16.1633  69.0041 H              1 LIG1101            0.0000
     21 H8         -11.0672  16.1351  69.4004 H              1 LIG1101            0.0000
     22 H9         -10.8149  16.6579  71.7361 H              1 LIG1101            0.0000
     23 H10        -11.4378  16.2340  74.0966 H              1 LIG1101            0.0000
     24 H11        -13.3557  14.7674  74.6278 H              1 LIG1101            0.0000
     25 H12        -14.6194  13.6620  72.8027 H              1 LIG1101            0.0000
     26 H13        -13.9732  14.0596  70.4516 H              1 LIG1101            0.0000
@<TRIPOS>BOND
    1    1    2 1     
    2    2    3 2     
    3    2    4 2     
    4    2    5 1     
    5    5    6 1     
    6    6    7 1     
    7    7    8 1     
    8    8    9 ar    
    9    9   10 ar    
   10   10   11 ar    
   11   11   12 ar    
   12    8   13 ar    
   13   12   13 ar    
   14    1   14 1     
   15    1   15 1     
   16    1   16 1     
   17    5   17 1     
   18    6   18 1     
   19    6   19 1     
   20    7   20 1     
   21    7   21 1     
   22    9   22 1     
   23   10   23 1     
   24   11   24 1     
   25   12   25 1     
   26   13   26 1     
@<TRIPOS>SUBSTRUCTURE
      1 LIG1101        1
@<TRIPOS>SET
LONE_PAIRS      STATIC     ATOMS    <user>   **** ""
2 3 4
DONOR_HYDROGENS      STATIC     ATOMS    <user>   **** ""
1 17
ATOM$BLUE        STATIC     ATOMS    COLORGROUP SYSTEM
2 3 4
ATOM$RED        STATIC     ATOMS    COLORGROUP SYSTEM
1 17
@<TRIPOS>COMMENT
> <Gold.Version>
2022.1.0

> <Gold.Id.Protein>
6LU7|6LU7_protein|mol2

> <Gold.Protein.RotatedTorsions>
[ 3973 1471 1470 1467 ] final  -85.46 input   60.00 | X-H torsion
[ 3372  414  413  411 ] final   97.54 input   60.00 | X-H torsion
[ 4268 1114 1113 1110 ] final   61.77 input   59.99 | X-H torsion
[ 4409  924  923  921 ] final   29.77 input   59.99 | X-H torsion
[ 4183 1244 1243 1241 ] final  175.53 input   59.99 | X-H torsion
[ 3800  178  177  174 ] final  -27.41 input   60.00 | X-H torsion
[ 3793  171  170  167 ] final  -58.38 input   60.00 | X-H torsion
[ 3576  185  184  181 ] final -113.85 input   60.00 | X-H torsion
[ 3523  346  345  342 ] final  -15.28 input   60.01 | X-H torsion
[ 3515  339  338  335 ] final  -83.79 input   60.00 | X-H torsion
[ 3663  154  153  150 ] final   61.39 input   60.00 | X-H torsion
[ 4280 1130 1129 1126 ] final  119.81 input   60.00 | X-H torsion

> <Gold.Protein.ActiveResidues>
 VAL20   THR21   CYS22   GLY23   THR24   THR25   THR26   LEU27   ASN28   PRO39  
 ARG40   HIS41   VAL42   CYS44   THR45   SER46   ASP48   MET49   LEU50   PRO52  
 TYR54   TYR118  ASN119  ILE136  GLY138  SER139  PHE140  LEU141  ASN142  GLY143 
 SER144  CYS145  GLY146  SER147  TYR161  HIS163  HIS164  MET165  GLU166  LEU167 
 PRO168  THR169  GLY170  VAL171  HIS172  ALA173  PHE181  PHE185  VAL186  ASP187 
 ARG188  GLN189  THR190  ALA191  GLN192  ALA193 

> <Gold.Protein.RotatedAtoms>
  -14.0083   17.4798   76.2758 H   0  0  0  0  0  0  0  0  0  0  0  0  # atno 3372 bound_to 414 
   -2.9937   20.5704   75.4124 H   0  0  0  0  0  0  0  0  0  0  0  0  # atno 3515 bound_to 339 
   -3.6503   17.7301   72.8324 H   0  0  0  0  0  0  0  0  0  0  0  0  # atno 3523 bound_to 346 
   -7.5725   25.2249   63.0967 H   0  0  0  0  0  0  0  0  0  0  0  0  # atno 3576 bound_to 185 
   -8.4613   29.5261   65.0872 H   0  0  0  0  0  0  0  0  0  0  0  0  # atno 3663 bound_to 154 
   -2.8530   24.9983   72.6679 H   0  0  0  0  0  0  0  0  0  0  0  0  # atno 3793 bound_to 171 
   -6.1728   22.8901   71.3680 H   0  0  0  0  0  0  0  0  0  0  0  0  # atno 3800 bound_to 178 
  -15.0807    9.1061   77.6488 H   0  0  0  0  0  0  0  0  0  0  0  0  # atno 3973 bound_to 1471
  -19.9244   13.5061   63.0769 H   0  0  0  0  0  0  0  0  0  0  0  0  # atno 4183 bound_to 1244
  -14.0564   16.2801   61.7071 H   0  0  0  0  0  0  0  0  0  0  0  0  # atno 4268 bound_to 1114
  -15.5410   18.8849   59.3616 H   0  0  0  0  0  0  0  0  0  0  0  0  # atno 4280 bound_to 1130
  -11.2833   15.1453   56.2313 H   0  0  0  0  0  0  0  0  0  0  0  0  # atno 4409 bound_to 924 
  -15.7131    7.8512   78.4692 LP  0  0  0  0  0  0  0  0  0  0  0  0  # atno 4696 bound_to 1471
  -15.2424    7.6616   76.9171 LP  0  0  0  0  0  0  0  0  0  0  0  0  # atno 4697 bound_to 1471
  -14.6003   18.3215   75.0151 LP  0  0  0  0  0  0  0  0  0  0  0  0  # atno 4731 bound_to 414 
  -15.4923   17.1385   75.7019 LP  0  0  0  0  0  0  0  0  0  0  0  0  # atno 4732 bound_to 414 
  -12.4788   15.9247   61.8878 LP  0  0  0  0  0  0  0  0  0  0  0  0  # atno 4733 bound_to 1114
  -13.3739   15.1357   60.7730 LP  0  0  0  0  0  0  0  0  0  0  0  0  # atno 4734 bound_to 1114
  -12.0727   15.4057   57.6302 LP  0  0  0  0  0  0  0  0  0  0  0  0  # atno 4763 bound_to 924 
  -10.5088   14.9359   57.6471 LP  0  0  0  0  0  0  0  0  0  0  0  0  # atno 4764 bound_to 924 
  -20.9637   12.3734   63.6105 LP  0  0  0  0  0  0  0  0  0  0  0  0  # atno 4771 bound_to 1244
  -20.4822   13.5767   64.6039 LP  0  0  0  0  0  0  0  0  0  0  0  0  # atno 4772 bound_to 1244
   -7.5871   22.5556   72.1000 LP  0  0  0  0  0  0  0  0  0  0  0  0  # atno 4775 bound_to 178 
   -6.8606   23.9980   72.3416 LP  0  0  0  0  0  0  0  0  0  0  0  0  # atno 4776 bound_to 178 
   -1.7829   23.8306   72.2950 LP  0  0  0  0  0  0  0  0  0  0  0  0  # atno 4779 bound_to 171 
   -3.3243   23.7289   71.7656 LP  0  0  0  0  0  0  0  0  0  0  0  0  # atno 4780 bound_to 171 
   -7.5583   26.7852   63.5584 LP  0  0  0  0  0  0  0  0  0  0  0  0  # atno 4783 bound_to 185 
   -8.8234   25.8277   63.9450 LP  0  0  0  0  0  0  0  0  0  0  0  0  # atno 4784 bound_to 185 
   -2.3351   16.8007   72.5990 LP  0  0  0  0  0  0  0  0  0  0  0  0  # atno 4785 bound_to 346 
   -2.1718   18.3253   73.1608 LP  0  0  0  0  0  0  0  0  0  0  0  0  # atno 4786 bound_to 346 
   -2.8120   22.1829   75.2898 LP  0  0  0  0  0  0  0  0  0  0  0  0  # atno 4787 bound_to 339 
   -3.6637   21.3662   74.1610 LP  0  0  0  0  0  0  0  0  0  0  0  0  # atno 4788 bound_to 339 
   -7.6244   28.2012   65.5257 LP  0  0  0  0  0  0  0  0  0  0  0  0  # atno 4797 bound_to 154 
   -6.8347   29.5682   65.1082 LP  0  0  0  0  0  0  0  0  0  0  0  0  # atno 4798 bound_to 154 

> <Gold.Score>
     Score     S(PLP)   S(hbond)     S(cho)   S(metal)  DE(clash)   DE(tors)     intcor
     44.63     -41.92       0.99       0.00       0.00       0.00       0.65       1.03

> <Gold.PLP.Fitness>
44.6252

> <Gold.PLP.PLP>
-41.9199

> <Gold.PLP.part.hbond>
-1.0000

> <Gold.PLP.part.metal>
0.0000

> <Gold.PLP.part.buried>
-5.8611

> <Gold.PLP.part.nonpolar>
-35.8829

> <Gold.PLP.part.repulsive>
0.1429

> <Gold.PLP.ligand.clash>
0.0000

> <Gold.PLP.ligand.torsion>
0.6491

> <Gold.PLP.Chemscore.Hbond>
0.9920

> <Gold.PLP.Chemscore.CHOScore>
0.0000

> <Gold.PLP.Chemscore.Metal>
0.0000

> <Gold.Chemscore.Hbonds>
donor molecule, donor type, donor heavy atom, donor atom, acceptor molecule, acceptor atom, score
      P1  H  1281  4132       L1     4  0.99

> <Gold.PLP.Chemscore.Internal.Correction>
1.0275

