unknown|prepared_Mpro-x0995|sdf|1|dock2
  -GOLD-   5 72214353D 1   1.00000     0.00000

 12 12  0  0  0  0  0  0  0  0  1 V2000
  -13.0182   16.2009   74.6679 N   0  0  0  0  0  0  0  0  0  0  0  0
  -12.8635   15.7793   73.3166 C   0  0  0  0  0  0  0  0  0  0  0  0
  -13.8754   15.1004   72.6686 C   0  0  0  0  0  0  0  0  0  0  0  0
  -13.7206   14.7072   71.3956 N   0  0  0  0  0  0  0  0  0  0  0  0
  -12.5965   14.9473   70.6963 C   0  0  0  0  0  0  0  0  0  0  0  0
  -11.6141   15.6084   71.3307 N   0  0  0  0  0  0  0  0  0  0  0  0
  -11.7024   16.0313   72.6051 C   0  0  0  0  0  0  0  0  0  0  0  0
  -13.8850   16.0206   75.2207 H   0  0  0  0  0  0  0  0  0  0  0  0
  -12.2320   16.7144   75.1328 H   0  0  0  0  0  0  0  0  0  0  0  0
  -14.7865   14.9076   73.2405 H   0  0  0  0  0  0  0  0  0  0  0  0
  -12.4916   14.6159   69.6543 H   0  0  0  0  0  0  0  0  0  0  0  0
  -10.9141   16.5591   73.1068 H   0  0  0  0  0  0  0  0  0  0  0  0
  1  2  1  0  0  0  0
  2  3  2  0  0  0  0
  3  4  1  0  0  0  0
  4  5  2  0  0  0  0
  5  6  1  0  0  0  0
  6  7  2  0  0  0  0
  2  7  1  0  0  0  0
  1  8  1  0  0  0  0
  1  9  1  0  0  0  0
  3 10  1  0  0  0  0
  5 11  1  0  0  0  0
  7 12  1  0  0  0  0
M  END
> <Gold.Version>
2022.1.0

> <Gold.Id.Protein>
6LU7|6LU7_protein|mol2

> <Gold.PLP.Fitness>
27.1133

> <Gold.PLP.PLP>
-24.1133

> <Gold.PLP.part.hbond>
-2.0000

> <Gold.PLP.part.metal>
0.0000

> <Gold.PLP.part.buried>
-6.0429

> <Gold.PLP.part.nonpolar>
-16.5397

> <Gold.PLP.part.repulsive>
0.2982

> <Gold.PLP.ligand.clash>
0.0000

> <Gold.PLP.ligand.torsion>
0.0000

> <Gold.PLP.Chemscore.Hbond>
1.0000

> <Gold.PLP.Chemscore.CHOScore>
0.0000

> <Gold.PLP.Chemscore.Metal>
0.0000

> <Gold.Chemscore.Hbonds>
donor molecule, donor type, donor heavy atom, donor atom, acceptor molecule, acceptor atom, score
      L1  H     1     8       P1  1441  1.00

> <Gold.PLP.Chemscore.Internal.Correction>
0.0000

> <Gold.Protein.RotatedTorsions>
[ 3973 1471 1470 1467 ] final  -22.75 input   60.00 | X-H torsion
[ 3372  414  413  411 ] final  -36.00 input   60.00 | X-H torsion
[ 4268 1114 1113 1110 ] final -155.29 input   59.99 | X-H torsion
[ 4409  924  923  921 ] final   -2.19 input   59.99 | X-H torsion
[ 4183 1244 1243 1241 ] final -140.11 input   59.99 | X-H torsion
[ 3800  178  177  174 ] final  -27.61 input   60.00 | X-H torsion
[ 3793  171  170  167 ] final   41.35 input   60.00 | X-H torsion
[ 3576  185  184  181 ] final -178.21 input   60.00 | X-H torsion
[ 3523  346  345  342 ] final  170.86 input   60.01 | X-H torsion
[ 3515  339  338  335 ] final   40.00 input   60.00 | X-H torsion
[ 3663  154  153  150 ] final   52.66 input   60.00 | X-H torsion
[ 4280 1130 1129 1126 ] final -112.09 input   60.00 | X-H torsion

> <Gold.Protein.ActiveResidues>
 VAL20   THR21   CYS22   GLY23   THR24   THR25   THR26   LEU27   ASN28   PRO39  
 ARG40   HIS41   VAL42   CYS44   THR45   SER46   ASP48   MET49   LEU50   PRO52  
 TYR54   TYR118  ASN119  ILE136  GLY138  SER139  PHE140  LEU141  ASN142  GLY143 
 SER144  CYS145  GLY146  SER147  TYR161  HIS163  HIS164  MET165  GLU166  LEU167 
 PRO168  THR169  GLY170  VAL171  HIS172  ALA173  PHE181  PHE185  VAL186  ASP187 
 ARG188  GLN189  THR190  ALA191  GLN192  ALA193 

> <Gold.Protein.RotatedAtoms>
  -14.8047   18.2542   74.9617 H   0  0  0  0  0  0  0  0  0  0  0  0  # atno 3372 bound_to 414 
   -3.6542   21.4279   74.1649 H   0  0  0  0  0  0  0  0  0  0  0  0  # atno 3515 bound_to 339 
   -1.8078   17.4138   72.8638 H   0  0  0  0  0  0  0  0  0  0  0  0  # atno 3523 bound_to 346 
   -7.1516   26.1275   63.1448 H   0  0  0  0  0  0  0  0  0  0  0  0  # atno 3576 bound_to 185 
   -8.5205   29.4022   65.1253 H   0  0  0  0  0  0  0  0  0  0  0  0  # atno 3663 bound_to 154 
   -3.4907   23.9944   71.8716 H   0  0  0  0  0  0  0  0  0  0  0  0  # atno 3793 bound_to 171 
   -6.1742   22.8872   71.3676 H   0  0  0  0  0  0  0  0  0  0  0  0  # atno 3800 bound_to 178 
  -14.9831    8.5233   76.8743 H   0  0  0  0  0  0  0  0  0  0  0  0  # atno 3973 bound_to 1471
  -19.8831   13.8880   63.6703 H   0  0  0  0  0  0  0  0  0  0  0  0  # atno 4183 bound_to 1244
  -13.0135   15.1127   60.8696 H   0  0  0  0  0  0  0  0  0  0  0  0  # atno 4268 bound_to 1114
  -16.3518   19.3471   57.9603 H   0  0  0  0  0  0  0  0  0  0  0  0  # atno 4280 bound_to 1130
  -11.7585   15.2906   56.3681 H   0  0  0  0  0  0  0  0  0  0  0  0  # atno 4409 bound_to 924 
  -15.4312    8.7894   78.4158 LP  0  0  0  0  0  0  0  0  0  0  0  0  # atno 4696 bound_to 1471
  -15.6226    7.3104   77.7506 LP  0  0  0  0  0  0  0  0  0  0  0  0  # atno 4697 bound_to 1471
  -15.3894   17.0384   75.8717 LP  0  0  0  0  0  0  0  0  0  0  0  0  # atno 4731 bound_to 414 
  -13.9013   17.6417   76.1687 LP  0  0  0  0  0  0  0  0  0  0  0  0  # atno 4732 bound_to 414 
  -14.2039   16.0647   61.4394 LP  0  0  0  0  0  0  0  0  0  0  0  0  # atno 4733 bound_to 1114
  -12.6991   16.1713   62.0648 LP  0  0  0  0  0  0  0  0  0  0  0  0  # atno 4734 bound_to 1114
  -11.7169   15.3054   57.9947 LP  0  0  0  0  0  0  0  0  0  0  0  0  # atno 4763 bound_to 924 
  -10.3859   14.8898   57.1448 LP  0  0  0  0  0  0  0  0  0  0  0  0  # atno 4764 bound_to 924 
  -20.5913   12.5675   63.0357 LP  0  0  0  0  0  0  0  0  0  0  0  0  # atno 4771 bound_to 1244
  -20.8962   12.9981   64.5811 LP  0  0  0  0  0  0  0  0  0  0  0  0  # atno 4772 bound_to 1244
   -7.5886   22.5578   72.1020 LP  0  0  0  0  0  0  0  0  0  0  0  0  # atno 4775 bound_to 178 
   -6.8577   23.9986   72.3401 LP  0  0  0  0  0  0  0  0  0  0  0  0  # atno 4776 bound_to 178 
   -2.5341   24.9728   72.7522 LP  0  0  0  0  0  0  0  0  0  0  0  0  # atno 4779 bound_to 171 
   -1.9307   23.5978   72.1103 LP  0  0  0  0  0  0  0  0  0  0  0  0  # atno 4780 bound_to 171 
   -8.4519   26.6244   63.9874 LP  0  0  0  0  0  0  0  0  0  0  0  0  # atno 4783 bound_to 185 
   -8.3537   25.0794   63.4676 LP  0  0  0  0  0  0  0  0  0  0  0  0  # atno 4784 bound_to 185 
   -3.0133   18.4697   73.1464 LP  0  0  0  0  0  0  0  0  0  0  0  0  # atno 4785 bound_to 346 
   -3.3492   16.9748   72.5817 LP  0  0  0  0  0  0  0  0  0  0  0  0  # atno 4786 bound_to 346 
   -3.0235   20.5351   75.3703 LP  0  0  0  0  0  0  0  0  0  0  0  0  # atno 4787 bound_to 339 
   -2.7870   22.1505   75.3370 LP  0  0  0  0  0  0  0  0  0  0  0  0  # atno 4788 bound_to 339 
   -7.4815   28.2151   65.5245 LP  0  0  0  0  0  0  0  0  0  0  0  0  # atno 4797 bound_to 154 
   -6.9178   29.6791   65.0710 LP  0  0  0  0  0  0  0  0  0  0  0  0  # atno 4798 bound_to 154 

$$$$
