unknown|prepared_Mpro-x0195|sdf|1|dock4
  -GOLD-   5 72214353D 1   1.00000     0.00000

 29 30  0  0  0  0  0  0  0  0  1 V2000
  -11.6221   15.8260   69.5461 C   0  0  0  0  0  0  0  0  0  0  0  0
  -12.0252   15.3298   70.8517 N   0  0  0  0  0  0  0  0  0  0  0  0
  -12.0769   16.3026   71.9230 C   0  0  0  0  0  0  0  0  0  0  0  0
  -12.8041   15.8577   73.1354 C   0  0  0  0  0  0  0  0  0  0  0  0
  -13.6685   14.6510   72.9790 C   0  0  0  0  0  0  0  0  0  0  0  0
  -13.1618   13.6049   72.0989 C   0  0  0  0  0  0  0  0  0  0  0  0
  -13.5006   12.2888   72.3269 C   0  0  0  0  0  0  0  0  0  0  0  0
  -12.9949   11.3390   71.4633 C   0  0  0  0  0  0  0  0  0  0  0  0
  -12.1710   11.6862   70.3965 C   0  0  0  0  0  0  0  0  0  0  0  0
  -11.8389   13.0049   70.1780 C   0  0  0  0  0  0  0  0  0  0  0  0
  -12.3467   13.9625   71.0460 C   0  0  0  0  0  0  0  0  0  0  0  0
  -11.5325   10.4940   69.3072 S   0  0  0  0  0  0  0  0  0  0  0  0
  -10.0175   10.5322   69.3599 O   0  0  0  0  0  0  0  0  0  0  0  0
  -11.9864   10.7983   67.9308 O   0  0  0  0  0  0  0  0  0  0  0  0
  -12.0138    8.9268   69.8357 N   0  0  0  0  0  0  0  0  0  0  0  0
  -10.5492   15.6282   69.3425 H   0  0  0  0  0  0  0  0  0  0  0  0
  -11.8269   16.9160   69.4407 H   0  0  0  0  0  0  0  0  0  0  0  0
  -12.1805   15.3311   68.7179 H   0  0  0  0  0  0  0  0  0  0  0  0
  -12.5785   17.2040   71.5107 H   0  0  0  0  0  0  0  0  0  0  0  0
  -11.0281   16.6000   72.1377 H   0  0  0  0  0  0  0  0  0  0  0  0
  -13.4348   16.6767   73.5416 H   0  0  0  0  0  0  0  0  0  0  0  0
  -12.0539   15.6346   73.9299 H   0  0  0  0  0  0  0  0  0  0  0  0
  -14.6921   14.9328   72.6194 H   0  0  0  0  0  0  0  0  0  0  0  0
  -13.8509   14.1879   73.9894 H   0  0  0  0  0  0  0  0  0  0  0  0
  -14.1400   12.0260   73.1562 H   0  0  0  0  0  0  0  0  0  0  0  0
  -13.2129   10.2840   71.5727 H   0  0  0  0  0  0  0  0  0  0  0  0
  -11.2135   13.3403   69.3804 H   0  0  0  0  0  0  0  0  0  0  0  0
  -12.6032    8.4332   69.1270 H   0  0  0  0  0  0  0  0  0  0  0  0
  -11.1998    8.3489   70.1309 H   0  0  0  0  0  0  0  0  0  0  0  0
  1  2  1  0  0  0  0
  2  3  1  0  0  0  0
  3  4  1  0  0  0  0
  4  5  1  0  0  0  0
  5  6  1  0  0  0  0
  6  7  2  0  0  0  0
  7  8  1  0  0  0  0
  8  9  2  0  0  0  0
  9 10  1  0  0  0  0
 10 11  2  0  0  0  0
  9 12  1  0  0  0  0
 12 13  2  0  0  0  0
 12 14  2  0  0  0  0
 12 15  1  0  0  0  0
 11  2  1  0  0  0  0
  6 11  1  0  0  0  0
  1 16  1  0  0  0  0
  1 17  1  0  0  0  0
  1 18  1  0  0  0  0
  3 19  1  0  0  0  0
  3 20  1  0  0  0  0
  4 21  1  0  0  0  0
  4 22  1  0  0  0  0
  5 23  1  0  0  0  0
  5 24  1  0  0  0  0
  7 25  1  0  0  0  0
  8 26  1  0  0  0  0
 10 27  1  0  0  0  0
 15 28  1  0  0  0  0
 15 29  1  0  0  0  0
M  END
> <Gold.Version>
2022.1.0

> <Gold.Id.Protein>
6LU7|6LU7_protein|mol2

> <Gold.PLP.Fitness>
51.0764

> <Gold.PLP.PLP>
-45.1662

> <Gold.PLP.part.hbond>
-2.0000

> <Gold.PLP.part.metal>
0.0000

> <Gold.PLP.part.buried>
-4.1303

> <Gold.PLP.part.nonpolar>
-39.7481

> <Gold.PLP.part.repulsive>
0.2088

> <Gold.PLP.ligand.clash>
0.0000

> <Gold.PLP.ligand.torsion>
1.1235

> <Gold.PLP.Chemscore.Hbond>
2.0000

> <Gold.PLP.Chemscore.CHOScore>
0.0000

> <Gold.PLP.Chemscore.Metal>
0.0000

> <Gold.Chemscore.Hbonds>
donor molecule, donor type, donor heavy atom, donor atom, acceptor molecule, acceptor atom, score
      L1  H    15    28       P1  1284  1.00
      P1  H  1281  4132       L1    14  1.00

> <Gold.PLP.Chemscore.Internal.Correction>
2.1572

> <Gold.Protein.RotatedTorsions>
[ 3973 1471 1470 1467 ] final   11.07 input   60.00 | X-H torsion
[ 3372  414  413  411 ] final -175.27 input   60.00 | X-H torsion
[ 4268 1114 1113 1110 ] final -171.51 input   59.99 | X-H torsion
[ 4409  924  923  921 ] final  157.88 input   59.99 | X-H torsion
[ 4183 1244 1243 1241 ] final  -53.90 input   59.99 | X-H torsion
[ 3800  178  177  174 ] final   47.78 input   60.00 | X-H torsion
[ 3793  171  170  167 ] final   38.01 input   60.00 | X-H torsion
[ 3576  185  184  181 ] final  149.97 input   60.00 | X-H torsion
[ 3523  346  345  342 ] final   29.34 input   60.01 | X-H torsion
[ 3515  339  338  335 ] final  117.70 input   60.00 | X-H torsion
[ 3663  154  153  150 ] final   73.76 input   60.00 | X-H torsion
[ 4280 1130 1129 1126 ] final  -11.11 input   60.00 | X-H torsion

> <Gold.Protein.ActiveResidues>
 VAL20   THR21   CYS22   GLY23   THR24   THR25   THR26   LEU27   ASN28   PRO39  
 ARG40   HIS41   VAL42   CYS44   THR45   SER46   ASP48   MET49   LEU50   PRO52  
 TYR54   TYR118  ASN119  ILE136  GLY138  SER139  PHE140  LEU141  ASN142  GLY143 
 SER144  CYS145  GLY146  SER147  TYR161  HIS163  HIS164  MET165  GLU166  LEU167 
 PRO168  THR169  GLY170  VAL171  HIS172  ALA173  PHE181  PHE185  VAL186  ASP187 
 ARG188  GLN189  THR190  ALA191  GLN192  ALA193 

> <Gold.Protein.RotatedAtoms>
  -15.1761   16.9616   76.0898 H   0  0  0  0  0  0  0  0  0  0  0  0  # atno 3372 bound_to 414 
   -3.1307   22.2884   74.7692 H   0  0  0  0  0  0  0  0  0  0  0  0  # atno 3515 bound_to 339 
   -3.3168   18.3119   73.0682 H   0  0  0  0  0  0  0  0  0  0  0  0  # atno 3523 bound_to 346 
   -7.3062   26.5669   63.3603 H   0  0  0  0  0  0  0  0  0  0  0  0  # atno 3576 bound_to 185 
   -8.3453   29.6840   65.0395 H   0  0  0  0  0  0  0  0  0  0  0  0  # atno 3663 bound_to 154 
   -3.5095   24.0407   71.8937 H   0  0  0  0  0  0  0  0  0  0  0  0  # atno 3793 bound_to 171 
   -6.2910   23.8814   71.9232 H   0  0  0  0  0  0  0  0  0  0  0  0  # atno 3800 bound_to 178 
  -15.1051    7.9979   76.7981 H   0  0  0  0  0  0  0  0  0  0  0  0  # atno 3973 bound_to 1471
  -20.5933   13.4487   64.6396 H   0  0  0  0  0  0  0  0  0  0  0  0  # atno 4183 bound_to 1244
  -13.2661   15.1223   60.7928 H   0  0  0  0  0  0  0  0  0  0  0  0  # atno 4268 bound_to 1114
  -16.1586   20.4094   58.9199 H   0  0  0  0  0  0  0  0  0  0  0  0  # atno 4280 bound_to 1130
  -10.5852   14.9632   57.7526 H   0  0  0  0  0  0  0  0  0  0  0  0  # atno 4409 bound_to 924 
  -15.2110    9.0818   78.0072 LP  0  0  0  0  0  0  0  0  0  0  0  0  # atno 4696 bound_to 1471
  -15.7198    7.5470   78.2358 LP  0  0  0  0  0  0  0  0  0  0  0  0  # atno 4697 bound_to 1471
  -13.8345   17.8741   75.9658 LP  0  0  0  0  0  0  0  0  0  0  0  0  # atno 4731 bound_to 414 
  -15.0821   18.1077   74.9384 LP  0  0  0  0  0  0  0  0  0  0  0  0  # atno 4732 bound_to 414 
  -14.1176   16.2252   61.6333 LP  0  0  0  0  0  0  0  0  0  0  0  0  # atno 4733 bound_to 1114
  -12.5310   16.0012   61.9483 LP  0  0  0  0  0  0  0  0  0  0  0  0  # atno 4734 bound_to 1114
  -11.1565   15.1049   56.2355 LP  0  0  0  0  0  0  0  0  0  0  0  0  # atno 4763 bound_to 924 
  -12.1280   15.4202   57.5097 LP  0  0  0  0  0  0  0  0  0  0  0  0  # atno 4764 bound_to 924 
  -19.8769   13.6287   63.1896 LP  0  0  0  0  0  0  0  0  0  0  0  0  # atno 4771 bound_to 1244
  -20.8954   12.3793   63.4509 LP  0  0  0  0  0  0  0  0  0  0  0  0  # atno 4772 bound_to 1244
   -6.6672   22.3759   71.4332 LP  0  0  0  0  0  0  0  0  0  0  0  0  # atno 4775 bound_to 178 
   -7.6615   23.1794   72.4493 LP  0  0  0  0  0  0  0  0  0  0  0  0  # atno 4776 bound_to 178 
   -2.4816   24.9582   72.7594 LP  0  0  0  0  0  0  0  0  0  0  0  0  # atno 4779 bound_to 171 
   -1.9644   23.5658   72.0809 LP  0  0  0  0  0  0  0  0  0  0  0  0  # atno 4780 bound_to 171 
   -8.7491   26.2025   64.0186 LP  0  0  0  0  0  0  0  0  0  0  0  0  # atno 4783 bound_to 185 
   -7.9008   25.0588   63.2193 LP  0  0  0  0  0  0  0  0  0  0  0  0  # atno 4784 bound_to 185 
   -3.0486   16.7959   72.5410 LP  0  0  0  0  0  0  0  0  0  0  0  0  # atno 4785 bound_to 346 
   -1.7942   17.7442   72.9813 LP  0  0  0  0  0  0  0  0  0  0  0  0  # atno 4786 bound_to 346 
   -3.6174   20.7856   74.3785 LP  0  0  0  0  0  0  0  0  0  0  0  0  # atno 4787 bound_to 339 
   -2.7203   21.0334   75.7202 LP  0  0  0  0  0  0  0  0  0  0  0  0  # atno 4788 bound_to 339 
   -7.8266   28.2171   65.5160 LP  0  0  0  0  0  0  0  0  0  0  0  0  # atno 4797 bound_to 154 
   -6.7492   29.3932   65.1659 LP  0  0  0  0  0  0  0  0  0  0  0  0  # atno 4798 bound_to 154 

$$$$
