#       Name:                unknown
#       Creating user name   williammccorkindale
#       Creation time:       Tue Jun  7 14:55:38 2022


#       File generated by GOLD software.
#

@<TRIPOS>MOLECULE
unknown|prepared_Mpro-x1077|mol2|1|dock4
    32    33     1
SMALL
NO_CHARGES


@<TRIPOS>ATOM
      1 N1          -9.7040  17.1711  65.5029 N.1            1 RES1               0.0000
      2 C2         -10.1551  16.6740  66.4461 C.1            1 RES1               0.0000
      3 C3         -10.7024  16.0441  67.6301 C.ar           1 RES1               0.0000
      4 C4         -10.8019  16.7261  68.8251 C.ar           1 RES1               0.0000
      5 C5         -11.3257  16.1231  69.9580 C.ar           1 RES1               0.0000
      6 C6         -11.7681  14.8159  69.9336 C.ar           1 RES1               0.0000
      7 C7         -11.6531  14.1663  68.7229 C.ar           1 RES1               0.0000
      8 N8         -11.1351  14.7715  67.6136 N.ar           1 RES1               0.0000
      9 N9         -12.2970  14.2088  71.0893 N.pl3          1 RES1               0.0000
     10 C10        -12.6965  12.8036  70.8982 C.3            1 RES1               0.0000
     11 C11        -13.3768  12.2317  72.1054 C.3            1 RES1               0.0000
     12 C12        -14.4073  13.1812  72.6966 C.3            1 RES1               0.0000
     13 O13        -14.6307  14.2940  71.9233 O.3            1 RES1               0.0000
     14 C14        -13.8790  15.3827  72.4242 C.3            1 RES1               0.0000
     15 C15        -12.4196  14.9179  72.3173 C.3            1 RES1               0.0000
     16 H16        -10.4507  17.7551  68.8343 H              1 RES1               0.0000
     17 H17        -11.3945  16.6869  70.8953 H              1 RES1               0.0000
     18 H18        -11.9935  13.1426  68.6868 H              1 RES1               0.0000
     19 H19        -11.7532  12.2433  70.7386 H              1 RES1               0.0000
     20 H20        -13.4108  12.7146  70.0552 H              1 RES1               0.0000
     21 H21        -12.5735  12.0216  72.8595 H              1 RES1               0.0000
     22 H22        -13.8669  11.3031  71.8183 H              1 RES1               0.0000
     23 H23        -14.1533  13.5048  73.7174 H              1 RES1               0.0000
     24 H24        -15.3938  12.6480  72.7882 H              1 RES1               0.0000
     25 H25        -14.0270  16.2828  71.8196 H              1 RES1               0.0000
     26 H26        -14.1374  15.5263  73.4966 H              1 RES1               0.0000
     27 H27        -11.7060  15.7053  72.5205 H              1 RES1               0.0000
     28 H28        -12.3117  14.2043  73.1920 H              1 RES1               0.0000
     29 ****        -9.3143  17.6004  64.6881 LP             1 RES1               0.0000
     30 ****       -11.0758  14.2513  66.7617 LP             1 RES1               0.0000
     31 ****       -15.6036  14.5240  71.9452 LP             1 RES1               0.0000
     32 ****       -14.3541  14.1048  70.9811 LP             1 RES1               0.0000
@<TRIPOS>BOND
    1    1    2 3     
    2    2    3 1     
    3    3    4 ar    
    4    4    5 ar    
    5    5    6 ar    
    6    6    7 ar    
    7    7    8 ar    
    8    6    9 1     
    9    9   10 1     
   10   10   11 1     
   11   11   12 1     
   12   12   13 1     
   13   13   14 1     
   14   14   15 1     
   15    3    8 ar    
   16   15    9 1     
   17    4   16 1     
   18    5   17 1     
   19    7   18 1     
   20   10   19 1     
   21   10   20 1     
   22   11   21 1     
   23   11   22 1     
   24   12   23 1     
   25   12   24 1     
   26   14   25 1     
   27   14   26 1     
   28   15   27 1     
   29   15   28 1     
   30    1   29 1     
   31    8   30 1     
   32   13   31 1     
   33   13   32 1     
@<TRIPOS>SUBSTRUCTURE
      1 RES1           1
@<TRIPOS>SET
LONE_PAIRS      STATIC     ATOMS    <user>   **** ""
4 29 30 31 32
ATOM$BLUE        STATIC     ATOMS    COLORGROUP SYSTEM
4 29 30 31 32
@<TRIPOS>COMMENT
> <Gold.Version>
2022.1.0

> <Gold.Id.Protein>
6LU7|6LU7_protein|mol2

> <Gold.Protein.RotatedTorsions>
[ 3973 1471 1470 1467 ] final   23.00 input   60.00 | X-H torsion
[ 3372  414  413  411 ] final  -58.80 input   60.00 | X-H torsion
[ 4268 1114 1113 1110 ] final  -39.35 input   59.99 | X-H torsion
[ 4409  924  923  921 ] final  -30.94 input   59.99 | X-H torsion
[ 4183 1244 1243 1241 ] final   79.81 input   59.99 | X-H torsion
[ 3800  178  177  174 ] final   -7.50 input   60.00 | X-H torsion
[ 3793  171  170  167 ] final -117.21 input   60.00 | X-H torsion
[ 3576  185  184  181 ] final -120.80 input   60.00 | X-H torsion
[ 3523  346  345  342 ] final  161.64 input   60.01 | X-H torsion
[ 3515  339  338  335 ] final -160.07 input   60.00 | X-H torsion
[ 3663  154  153  150 ] final  -75.17 input   60.00 | X-H torsion
[ 4280 1130 1129 1126 ] final   46.71 input   60.00 | X-H torsion

> <Gold.Protein.ActiveResidues>
 VAL20   THR21   CYS22   GLY23   THR24   THR25   THR26   LEU27   ASN28   PRO39  
 ARG40   HIS41   VAL42   CYS44   THR45   SER46   ASP48   MET49   LEU50   PRO52  
 TYR54   TYR118  ASN119  ILE136  GLY138  SER139  PHE140  LEU141  ASN142  GLY143 
 SER144  CYS145  GLY146  SER147  TYR161  HIS163  HIS164  MET165  GLU166  LEU167 
 PRO168  THR169  GLY170  VAL171  HIS172  ALA173  PHE181  PHE185  VAL186  ASP187 
 ARG188  GLN189  THR190  ALA191  GLN192  ALA193 

> <Gold.Protein.RotatedAtoms>
  -15.1270   18.0728   74.9508 H   0  0  0  0  0  0  0  0  0  0  0  0  # atno 3372 bound_to 414 
   -2.6442   21.6363   75.6932 H   0  0  0  0  0  0  0  0  0  0  0  0  # atno 3515 bound_to 339 
   -1.7888   17.5538   72.9157 H   0  0  0  0  0  0  0  0  0  0  0  0  # atno 3523 bound_to 346 
   -7.4877   25.2966   63.0731 H   0  0  0  0  0  0  0  0  0  0  0  0  # atno 3576 bound_to 185 
   -7.3585   28.2517   65.5179 H   0  0  0  0  0  0  0  0  0  0  0  0  # atno 3663 bound_to 154 
   -2.0006   24.6576   72.7224 H   0  0  0  0  0  0  0  0  0  0  0  0  # atno 3793 bound_to 171 
   -6.0728   23.1871   71.4490 H   0  0  0  0  0  0  0  0  0  0  0  0  # atno 3800 bound_to 178 
  -15.1705    7.8206   76.8442 H   0  0  0  0  0  0  0  0  0  0  0  0  # atno 3973 bound_to 1471
  -20.7845   12.4323   63.2633 H   0  0  0  0  0  0  0  0  0  0  0  0  # atno 4183 bound_to 1244
  -12.6560   16.1304   62.0342 H   0  0  0  0  0  0  0  0  0  0  0  0  # atno 4268 bound_to 1114
  -15.7197   19.9646   59.5747 H   0  0  0  0  0  0  0  0  0  0  0  0  # atno 4280 bound_to 1130
  -12.0675   15.3896   56.7010 H   0  0  0  0  0  0  0  0  0  0  0  0  # atno 4409 bound_to 924 
  -15.1406    9.1167   77.8277 LP  0  0  0  0  0  0  0  0  0  0  0  0  # atno 4696 bound_to 1471
  -15.7244    7.6908   78.3689 LP  0  0  0  0  0  0  0  0  0  0  0  0  # atno 4697 bound_to 1471
  -15.1334   16.9482   76.1270 LP  0  0  0  0  0  0  0  0  0  0  0  0  # atno 4731 bound_to 414 
  -13.8327   17.9146   75.9244 LP  0  0  0  0  0  0  0  0  0  0  0  0  # atno 4732 bound_to 414 
  -13.0742   15.1037   60.8430 LP  0  0  0  0  0  0  0  0  0  0  0  0  # atno 4733 bound_to 1114
  -14.1888   16.1075   61.4884 LP  0  0  0  0  0  0  0  0  0  0  0  0  # atno 4734 bound_to 1114
  -11.2818   15.1767   58.1100 LP  0  0  0  0  0  0  0  0  0  0  0  0  # atno 4763 bound_to 924 
  -10.5098   14.9189   56.6943 LP  0  0  0  0  0  0  0  0  0  0  0  0  # atno 4764 bound_to 924 
  -20.7278   13.2701   64.6571 LP  0  0  0  0  0  0  0  0  0  0  0  0  # atno 4771 bound_to 1244
  -19.8519   13.7615   63.3695 LP  0  0  0  0  0  0  0  0  0  0  0  0  # atno 4772 bound_to 1244
   -7.4080   22.3726   71.8984 LP  0  0  0  0  0  0  0  0  0  0  0  0  # atno 4775 bound_to 178 
   -7.1405   23.8819   72.4616 LP  0  0  0  0  0  0  0  0  0  0  0  0  # atno 4776 bound_to 178 
   -2.4351   23.3734   71.8224 LP  0  0  0  0  0  0  0  0  0  0  0  0  # atno 4779 bound_to 171 
   -3.5306   24.5294   72.1833 LP  0  0  0  0  0  0  0  0  0  0  0  0  # atno 4780 bound_to 171 
   -7.6490   26.8214   63.6178 LP  0  0  0  0  0  0  0  0  0  0  0  0  # atno 4783 bound_to 185 
   -8.8181   25.7193   63.9093 LP  0  0  0  0  0  0  0  0  0  0  0  0  # atno 4784 bound_to 185 
   -3.1527   18.4182   73.1169 LP  0  0  0  0  0  0  0  0  0  0  0  0  # atno 4785 bound_to 346 
   -3.2289   16.8854   72.5589 LP  0  0  0  0  0  0  0  0  0  0  0  0  # atno 4786 bound_to 346 
   -3.4515   22.0134   74.3315 LP  0  0  0  0  0  0  0  0  0  0  0  0  # atno 4787 bound_to 339 
   -3.3762   20.4623   74.8366 LP  0  0  0  0  0  0  0  0  0  0  0  0  # atno 4788 bound_to 339 
   -7.0069   29.7672   65.0409 LP  0  0  0  0  0  0  0  0  0  0  0  0  # atno 4797 bound_to 154 
   -8.5627   29.2857   65.1591 LP  0  0  0  0  0  0  0  0  0  0  0  0  # atno 4798 bound_to 154 

> <Gold.Score>
     Score     S(PLP)   S(hbond)     S(cho)   S(metal)  DE(clash)   DE(tors)     intcor
     41.18     -38.18       1.00       0.00       0.00       0.00       0.00       0.00

> <Gold.PLP.Fitness>
41.1766

> <Gold.PLP.PLP>
-38.1778

> <Gold.PLP.part.hbond>
-1.0000

> <Gold.PLP.part.metal>
0.0000

> <Gold.PLP.part.buried>
-3.9475

> <Gold.PLP.part.nonpolar>
-33.0939

> <Gold.PLP.part.repulsive>
0.2295

> <Gold.PLP.ligand.clash>
0.0000

> <Gold.PLP.ligand.torsion>
0.0006

> <Gold.PLP.Chemscore.Hbond>
1.0000

> <Gold.PLP.Chemscore.CHOScore>
0.0000

> <Gold.PLP.Chemscore.Metal>
0.0000

> <Gold.Chemscore.Hbonds>
donor molecule, donor type, donor heavy atom, donor atom, acceptor molecule, acceptor atom, score
      P1  H  1105  4261       L1     1  1.00

> <Gold.PLP.Chemscore.Internal.Correction>
0.0000

