#       Name:                /Users/williammccorkindale/ml_physics/smi2wyck/notebooks/docking/mpro_fragments/prepared_Mpro-x0354.mol2
#       Creating user name   williammccorkindale
#       Creation time:       Tue Jun  7 14:55:34 2022


#       File generated by GOLD software.
#

@<TRIPOS>MOLECULE
/Users/williammccorkindale/ml_physics/smi2wyck/notebooks/docking/mpro_fragments/prepared_Mpro-x0354.mol2
    43    44     1
SMALL
NO_CHARGES


@<TRIPOS>ATOM
      1 C1          -5.3402  -0.1735   0.4874 C.3            1 RES1               0.0000
      2 N2          -4.4630  -0.7971  -0.4545 N.3            1 RES1               0.0000
      3 C3          -3.2662  -1.2629   0.1764 C.3            1 RES1               0.0000
      4 C4          -2.3412  -0.1148   0.5729 C.3            1 RES1               0.0000
      5 N5          -2.1309   0.6738  -0.6077 N.am           1 RES1               0.0000
      6 C6          -3.2697   1.1684  -1.3347 C.3            1 RES1               0.0000
      7 C7          -4.1791  -0.0092  -1.6108 C.3            1 RES1               0.0000
      8 C8          -0.8169   0.9545  -1.0413 C.2            1 RES1               0.0000
      9 O9          -0.5836   1.6430  -2.0712 O.2            1 RES1               0.0000
     10 C10          0.3256   0.4234  -0.2619 C.3            1 RES1               0.0000
     11 O11          1.5179   0.8354  -0.8837 O.3            1 RES1               0.0000
     12 C12          2.7358   0.4490  -0.3199 C.ar           1 RES1               0.0000
     13 C13          3.9408   0.8191  -0.8795 C.ar           1 RES1               0.0000
     14 C14          5.1424   0.4349  -0.3187 C.ar           1 RES1               0.0000
     15 C15          5.2066  -0.3356   0.8253 C.ar           1 RES1               0.0000
     16 C16          6.5031  -0.7458   1.4239 C.3            1 RES1               0.0000
     17 C17          3.9982  -0.7046   1.3833 C.ar           1 RES1               0.0000
     18 C18          2.7965  -0.3205   0.8227 C.ar           1 RES1               0.0000
     19 H19         -5.0758  -0.4260   1.5523 H              1 RES1               0.0000
     20 H20         -5.3484   0.9283   0.3546 H              1 RES1               0.0000
     21 H21         -6.3614  -0.6205   0.3381 H              1 RES1               0.0000
     22 H22         -2.7052  -1.8873  -0.5351 H              1 RES1               0.0000
     23 H23         -3.5463  -1.7800   1.1097 H              1 RES1               0.0000
     24 H24         -2.7858   0.4898   1.3896 H              1 RES1               0.0000
     25 H25         -1.4131  -0.6023   0.9479 H              1 RES1               0.0000
     26 H26         -3.8305   1.9385  -0.7729 H              1 RES1               0.0000
     27 H27         -2.9549   1.5990  -2.2894 H              1 RES1               0.0000
     28 H28         -3.6266  -0.6695  -2.3340 H              1 RES1               0.0000
     29 H29         -5.0779   0.3793  -2.0968 H              1 RES1               0.0000
     30 H30          0.2777  -0.6900  -0.1842 H              1 RES1               0.0000
     31 H31          0.2803   0.7797   0.8080 H              1 RES1               0.0000
     32 H32          3.9119   1.4259  -1.7805 H              1 RES1               0.0000
     33 H33          6.0930   0.7327  -0.7688 H              1 RES1               0.0000
     34 H34          6.8762  -1.6578   0.8986 H              1 RES1               0.0000
     35 H35          7.2486   0.0770   1.4029 H              1 RES1               0.0000
     36 H36          6.3748  -1.0196   2.4861 H              1 RES1               0.0000
     37 H37          4.0361  -1.3107   2.2832 H              1 RES1               0.0000
     38 H38          1.8512  -0.6243   1.2817 H              1 RES1               0.0000
     39 ****        -4.9671  -1.5884  -0.8005 LP             1 RES1               0.0000
     40 ****        -1.3421   2.0097  -2.6098 LP             1 RES1               0.0000
     41 ****         0.3600   1.8224  -2.3495 LP             1 RES1               0.0000
     42 ****         1.5079   1.8351  -0.9064 LP             1 RES1               0.0000
     43 ****         1.5004   0.4805  -1.8184 LP             1 RES1               0.0000
@<TRIPOS>BOND
    1    1    2 1     
    2    2    3 1     
    3    3    4 1     
    4    4    5 1     
    5    5    6 1     
    6    6    7 1     
    7    5    8 am    
    8    8    9 2     
    9    8   10 1     
   10   10   11 1     
   11   11   12 1     
   12   12   13 ar    
   13   13   14 ar    
   14   14   15 ar    
   15   15   16 1     
   16   15   17 ar    
   17   17   18 ar    
   18    7    2 1     
   19   12   18 ar    
   20    1   19 1     
   21    1   20 1     
   22    1   21 1     
   23    3   22 1     
   24    3   23 1     
   25    4   24 1     
   26    4   25 1     
   27    6   26 1     
   28    6   27 1     
   29    7   28 1     
   30    7   29 1     
   31   10   30 1     
   32   10   31 1     
   33   13   32 1     
   34   14   33 1     
   35   16   34 1     
   36   16   35 1     
   37   16   36 1     
   38   17   37 1     
   39   18   38 1     
   40    2   39 1     
   41    9   40 1     
   42    9   41 1     
   43   11   42 1     
   44   11   43 1     
@<TRIPOS>SUBSTRUCTURE
      1 RES1           1
@<TRIPOS>SET
LONE_PAIRS      STATIC     ATOMS    <user>   **** ""
5 39 40 41 42 43
ATOM$BLUE        STATIC     ATOMS    COLORGROUP SYSTEM
5 39 40 41 42 43
