#       Name:                unknown
#       Creating user name   williammccorkindale
#       Creation time:       Tue Jun  7 14:55:36 2022


#       File generated by GOLD software.
#

@<TRIPOS>MOLECULE
unknown|prepared_Mpro-x0072|mol2|1|dock2
    27    27     1
SMALL
NO_CHARGES


@<TRIPOS>ATOM
      1 C1         -12.5801  10.9724  70.5859 C.3            1 RES1               0.0000
      2 S2         -11.3510  11.2054  69.3030 S.o2           1 RES1               0.0000
      3 O3         -10.1991  10.2787  69.5317 O.2            1 RES1               0.0000
      4 O4         -12.0078  10.8134  68.0078 O.2            1 RES1               0.0000
      5 N5         -10.7981  12.8208  69.2339 N.3            1 RES1               0.0000
      6 C6         -11.8472  13.7368  68.8182 C.3            1 RES1               0.0000
      7 C7         -11.7352  15.0654  69.4945 C.3            1 RES1               0.0000
      8 C8         -12.1417  15.0253  70.9170 C.ar           1 RES1               0.0000
      9 C9         -11.7103  16.0057  71.8040 C.ar           1 RES1               0.0000
     10 C10        -12.0819  15.9797  73.1318 C.ar           1 RES1               0.0000
     11 C11        -12.8984  14.9743  73.6254 C.ar           1 RES1               0.0000
     12 C12        -13.3374  13.9864  72.7484 C.ar           1 RES1               0.0000
     13 C13        -12.9554  14.0237  71.4099 C.ar           1 RES1               0.0000
     14 H14        -12.4552   9.9843  71.0734 H              1 RES1               0.0000
     15 H15        -12.3713  11.7310  71.3659 H              1 RES1               0.0000
     16 H16        -13.6006  11.1153  70.2134 H              1 RES1               0.0000
     17 H17        -10.3823  13.0959  70.1429 H              1 RES1               0.0000
     18 H18        -11.7842  13.8988  67.7303 H              1 RES1               0.0000
     19 H19        -12.8509  13.3065  69.0644 H              1 RES1               0.0000
     20 H20        -12.3572  15.7871  68.9313 H              1 RES1               0.0000
     21 H21        -10.6656  15.4028  69.4633 H              1 RES1               0.0000
     22 H22        -11.0718  16.8122  71.4696 H              1 RES1               0.0000
     23 H23        -11.7192  16.7659  73.7798 H              1 RES1               0.0000
     24 H24        -13.1858  14.9564  74.6581 H              1 RES1               0.0000
     25 H25        -13.9669  13.1942  73.0856 H              1 RES1               0.0000
     26 H26        -13.3155  13.2333  70.7417 H              1 RES1               0.0000
     27 ****       -10.0848  12.8759  68.5352 LP             1 RES1               0.0000
@<TRIPOS>BOND
    1    1    2 1     
    2    2    3 2     
    3    2    4 2     
    4    2    5 1     
    5    5    6 1     
    6    6    7 1     
    7    7    8 1     
    8    8    9 ar    
    9    9   10 ar    
   10   10   11 ar    
   11   11   12 ar    
   12   12   13 ar    
   13    8   13 ar    
   14    1   14 1     
   15    1   15 1     
   16    1   16 1     
   17    5   17 1     
   18    6   18 1     
   19    6   19 1     
   20    7   20 1     
   21    7   21 1     
   22    9   22 1     
   23   10   23 1     
   24   11   24 1     
   25   12   25 1     
   26   13   26 1     
   27    5   27 1     
@<TRIPOS>SUBSTRUCTURE
      1 RES1           1
@<TRIPOS>SET
LONE_PAIRS      STATIC     ATOMS    <user>   **** ""
3 3 4 27
DONOR_HYDROGENS      STATIC     ATOMS    <user>   **** ""
1 17
ATOM$BLUE        STATIC     ATOMS    COLORGROUP SYSTEM
3 3 4 27
ATOM$RED        STATIC     ATOMS    COLORGROUP SYSTEM
1 17
@<TRIPOS>COMMENT
> <Gold.Version>
2022.1.0

> <Gold.Id.Protein>
6LU7|6LU7_protein|mol2

> <Gold.Protein.RotatedTorsions>
[ 3973 1471 1470 1467 ] final  -70.65 input   60.00 | X-H torsion
[ 3372  414  413  411 ] final    2.97 input   60.00 | X-H torsion
[ 4268 1114 1113 1110 ] final    4.27 input   59.99 | X-H torsion
[ 4409  924  923  921 ] final   69.80 input   59.99 | X-H torsion
[ 4183 1244 1243 1241 ] final -143.86 input   59.99 | X-H torsion
[ 3800  178  177  174 ] final -163.16 input   60.00 | X-H torsion
[ 3793  171  170  167 ] final -166.26 input   60.00 | X-H torsion
[ 3576  185  184  181 ] final   43.78 input   60.00 | X-H torsion
[ 3523  346  345  342 ] final   15.00 input   60.01 | X-H torsion
[ 3515  339  338  335 ] final   17.68 input   60.00 | X-H torsion
[ 3663  154  153  150 ] final  146.55 input   60.00 | X-H torsion
[ 4280 1130 1129 1126 ] final   12.30 input   60.00 | X-H torsion

> <Gold.Protein.ActiveResidues>
 VAL20   THR21   CYS22   GLY23   THR24   THR25   THR26   LEU27   ASN28   PRO39  
 ARG40   HIS41   VAL42   CYS44   THR45   SER46   ASP48   MET49   LEU50   PRO52  
 TYR54   TYR118  ASN119  ILE136  GLY138  SER139  PHE140  LEU141  ASN142  GLY143 
 SER144  CYS145  GLY146  SER147  TYR161  HIS163  HIS164  MET165  GLU166  LEU167 
 PRO168  THR169  GLY170  VAL171  HIS172  ALA173  PHE181  PHE185  VAL186  ASP187 
 ARG188  GLN189  THR190  ALA191  GLN192  ALA193 

> <Gold.Protein.RotatedAtoms>
  -14.2447   18.3367   75.2256 H   0  0  0  0  0  0  0  0  0  0  0  0  # atno 3372 bound_to 414 
   -3.6685   21.0720   74.2314 H   0  0  0  0  0  0  0  0  0  0  0  0  # atno 3515 bound_to 339 
   -3.4764   18.1556   72.9993 H   0  0  0  0  0  0  0  0  0  0  0  0  # atno 3523 bound_to 346 
   -8.6388   26.3998   64.0220 H   0  0  0  0  0  0  0  0  0  0  0  0  # atno 3576 bound_to 185 
   -7.2600   29.9168   64.9899 H   0  0  0  0  0  0  0  0  0  0  0  0  # atno 3663 bound_to 154 
   -1.7513   23.9954   72.4008 H   0  0  0  0  0  0  0  0  0  0  0  0  # atno 3793 bound_to 171 
   -7.6646   22.7556   72.2429 H   0  0  0  0  0  0  0  0  0  0  0  0  # atno 3800 bound_to 178 
  -15.0204    9.0485   77.4223 H   0  0  0  0  0  0  0  0  0  0  0  0  # atno 3973 bound_to 1471
  -19.8729   13.8703   63.6124 H   0  0  0  0  0  0  0  0  0  0  0  0  # atno 4183 bound_to 1244
  -13.2758   16.4313   62.1297 H   0  0  0  0  0  0  0  0  0  0  0  0  # atno 4268 bound_to 1114
  -15.9775   20.3255   59.2431 H   0  0  0  0  0  0  0  0  0  0  0  0  # atno 4280 bound_to 1130
  -10.7077   14.9764   56.4568 H   0  0  0  0  0  0  0  0  0  0  0  0  # atno 4409 bound_to 924 
  -15.6771    8.0773   78.5508 LP  0  0  0  0  0  0  0  0  0  0  0  0  # atno 4696 bound_to 1471
  -15.3391    7.4936   77.0636 LP  0  0  0  0  0  0  0  0  0  0  0  0  # atno 4697 bound_to 1471
  -15.5636   17.3969   75.3852 LP  0  0  0  0  0  0  0  0  0  0  0  0  # atno 4731 bound_to 414 
  -14.2910   17.2002   76.3894 LP  0  0  0  0  0  0  0  0  0  0  0  0  # atno 4732 bound_to 414 
  -12.5258   15.3000   61.2321 LP  0  0  0  0  0  0  0  0  0  0  0  0  # atno 4733 bound_to 1114
  -14.1130   15.6081   61.0030 LP  0  0  0  0  0  0  0  0  0  0  0  0  # atno 4734 bound_to 1114
  -12.1768   15.4254   56.9936 LP  0  0  0  0  0  0  0  0  0  0  0  0  # atno 4763 bound_to 924 
  -10.9844   15.0863   58.0566 LP  0  0  0  0  0  0  0  0  0  0  0  0  # atno 4764 bound_to 924 
  -20.6295   12.5349   63.0717 LP  0  0  0  0  0  0  0  0  0  0  0  0  # atno 4771 bound_to 1244
  -20.8683   13.0485   64.6033 LP  0  0  0  0  0  0  0  0  0  0  0  0  # atno 4772 bound_to 1244
   -6.6383   24.0180   72.2112 LP  0  0  0  0  0  0  0  0  0  0  0  0  # atno 4775 bound_to 178 
   -6.3071   22.6711   71.3494 LP  0  0  0  0  0  0  0  0  0  0  0  0  # atno 4776 bound_to 178 
   -3.1795   23.5971   71.7304 LP  0  0  0  0  0  0  0  0  0  0  0  0  # atno 4779 bound_to 171 
   -3.0373   24.9725   72.5991 LP  0  0  0  0  0  0  0  0  0  0  0  0  # atno 4780 bound_to 171 
   -8.1026   25.0335   63.3195 LP  0  0  0  0  0  0  0  0  0  0  0  0  # atno 4783 bound_to 185 
   -7.2053   26.3961   63.2520 LP  0  0  0  0  0  0  0  0  0  0  0  0  # atno 4784 bound_to 185 
   -2.8201   16.7396   72.5387 LP  0  0  0  0  0  0  0  0  0  0  0  0  # atno 4785 bound_to 346 
   -1.8620   17.9579   73.0529 LP  0  0  0  0  0  0  0  0  0  0  0  0  # atno 4786 bound_to 346 
   -2.8429   20.7561   75.5976 LP  0  0  0  0  0  0  0  0  0  0  0  0  # atno 4787 bound_to 339 
   -2.9532   22.2879   75.0426 LP  0  0  0  0  0  0  0  0  0  0  0  0  # atno 4788 bound_to 339 
   -8.5796   29.0006   65.2495 LP  0  0  0  0  0  0  0  0  0  0  0  0  # atno 4797 bound_to 154 
   -7.0892   28.3753   65.4823 LP  0  0  0  0  0  0  0  0  0  0  0  0  # atno 4798 bound_to 154 

> <Gold.Score>
     Score     S(PLP)   S(hbond)     S(cho)   S(metal)  DE(clash)   DE(tors)     intcor
     47.17     -42.44       1.99       0.00       0.00       0.00       0.66       0.07

> <Gold.PLP.Fitness>
47.1679

> <Gold.PLP.PLP>
-42.4420

> <Gold.PLP.part.hbond>
-2.0000

> <Gold.PLP.part.metal>
0.0000

> <Gold.PLP.part.buried>
-5.8094

> <Gold.PLP.part.nonpolar>
-35.8971

> <Gold.PLP.part.repulsive>
0.2148

> <Gold.PLP.ligand.clash>
0.0000

> <Gold.PLP.ligand.torsion>
0.6584

> <Gold.PLP.Chemscore.Hbond>
1.9920

> <Gold.PLP.Chemscore.CHOScore>
0.0000

> <Gold.PLP.Chemscore.Metal>
0.0000

> <Gold.Chemscore.Hbonds>
donor molecule, donor type, donor heavy atom, donor atom, acceptor molecule, acceptor atom, score
      L1  H     5    17       P1  1464  0.99
      P1  H  1281  4132       L1     4  1.00

> <Gold.PLP.Chemscore.Internal.Correction>
0.0668

