#       Name:                unknown
#       Creating user name   williammccorkindale
#       Creation time:       Tue Jun  7 14:55:40 2022


#       File generated by GOLD software.
#

@<TRIPOS>MOLECULE
unknown|prepared_Mpro-x1093|mol2|1|dock2
    41    43     1
SMALL
NO_CHARGES


@<TRIPOS>ATOM
      1 C1         -12.8234  15.5927  74.1935 C.3            1 RES1               0.0000
      2 N2         -12.6995  15.4894  72.7773 N.3            1 RES1               0.0000
      3 C3         -11.4011  15.7601  72.2463 C.3            1 RES1               0.0000
      4 C4         -11.5181  15.8060  70.7370 C.3            1 RES1               0.0000
      5 N5         -11.9902  14.5296  70.2542 N.am           1 RES1               0.0000
      6 C6         -12.5947  13.6056  71.1853 C.3            1 RES1               0.0000
      7 C7         -13.4002  14.3978  72.1855 C.3            1 RES1               0.0000
      8 C8         -11.8415  14.2298  68.8786 C.2            1 RES1               0.0000
      9 O9         -11.3037  15.0860  68.1381 O.2            1 RES1               0.0000
     10 C10        -12.2963  12.9581  68.3139 C.3            1 RES1               0.0000
     11 C11        -11.3092  12.3499  67.3967 C.2            1 RES1               0.0000
     12 C12        -10.0939  11.8152  67.7586 C.2            1 RES1               0.0000
     13 N13         -9.5135  11.3765  66.6371 N.pl3          1 RES1               0.0000
     14 C14        -10.3070  11.6097  65.5861 C.ar           1 RES1               0.0000
     15 N15        -10.2165  11.3770  64.2527 N.ar           1 RES1               0.0000
     16 C16        -11.1548  11.7034  63.3641 C.ar           1 RES1               0.0000
     17 C17        -12.3061  12.3211  63.8065 C.ar           1 RES1               0.0000
     18 C18        -12.4791  12.5950  65.1503 C.ar           1 RES1               0.0000
     19 C19        -11.4722  12.2331  66.0224 C.ar           1 RES1               0.0000
     20 H20        -12.3791  16.5296  74.5798 H              1 RES1               0.0000
     21 H21        -13.9278  15.5430  74.4200 H              1 RES1               0.0000
     22 H22        -12.3825  14.7183  74.7155 H              1 RES1               0.0000
     23 H23        -11.1122  16.7822  72.6234 H              1 RES1               0.0000
     24 H24        -10.6204  15.0258  72.5666 H              1 RES1               0.0000
     25 H25        -10.5705  16.1237  70.2583 H              1 RES1               0.0000
     26 H26        -12.3461  16.5390  70.5242 H              1 RES1               0.0000
     27 H27        -13.3369  12.9394  70.6551 H              1 RES1               0.0000
     28 H28        -11.8544  12.9752  71.7051 H              1 RES1               0.0000
     29 H29        -14.2601  14.8417  71.5991 H              1 RES1               0.0000
     30 H30        -13.8862  13.7252  72.9276 H              1 RES1               0.0000
     31 H31        -13.2570  13.1404  67.7779 H              1 RES1               0.0000
     32 H32        -12.5092  12.2308  69.1316 H              1 RES1               0.0000
     33 H33         -9.6844  11.7628  68.7805 H              1 RES1               0.0000
     34 H34         -8.5844  10.9234  66.5946 H              1 RES1               0.0000
     35 H35        -11.0724  11.5152  62.3018 H              1 RES1               0.0000
     36 H36        -13.0926  12.6028  63.1224 H              1 RES1               0.0000
     37 H37        -13.3425  13.0711  65.5730 H              1 RES1               0.0000
     38 ****       -13.2184  16.2802  72.4525 LP             1 RES1               0.0000
     39 ****       -10.9921  15.9548  68.5228 LP             1 RES1               0.0000
     40 ****       -11.1861  14.9003  67.1625 LP             1 RES1               0.0000
     41 ****        -9.3890  10.9299  63.9131 LP             1 RES1               0.0000
@<TRIPOS>BOND
    1    1    2 1     
    2    2    3 1     
    3    3    4 1     
    4    4    5 1     
    5    5    6 1     
    6    6    7 1     
    7    5    8 am    
    8    8    9 2     
    9    8   10 1     
   10   10   11 1     
   11   11   12 2     
   12   12   13 1     
   13   13   14 1     
   14   14   15 ar    
   15   15   16 ar    
   16   16   17 ar    
   17   17   18 ar    
   18   18   19 ar    
   19    7    2 1     
   20   19   11 1     
   21   19   14 ar    
   22    1   20 1     
   23    1   21 1     
   24    1   22 1     
   25    3   23 1     
   26    3   24 1     
   27    4   25 1     
   28    4   26 1     
   29    6   27 1     
   30    6   28 1     
   31    7   29 1     
   32    7   30 1     
   33   10   31 1     
   34   10   32 1     
   35   12   33 1     
   36   13   34 1     
   37   16   35 1     
   38   17   36 1     
   39   18   37 1     
   40    2   38 1     
   41    9   39 1     
   42    9   40 1     
   43   15   41 1     
@<TRIPOS>SUBSTRUCTURE
      1 RES1           1
@<TRIPOS>SET
LONE_PAIRS      STATIC     ATOMS    <user>   **** ""
4 38 39 40 41
DONOR_HYDROGENS      STATIC     ATOMS    <user>   **** ""
1 34
ATOM$BLUE        STATIC     ATOMS    COLORGROUP SYSTEM
4 38 39 40 41
ATOM$RED        STATIC     ATOMS    COLORGROUP SYSTEM
1 34
@<TRIPOS>COMMENT
> <Gold.Version>
2022.1.0

> <Gold.Id.Protein>
6LU7|6LU7_protein|mol2

> <Gold.Protein.RotatedTorsions>
[ 3973 1471 1470 1467 ] final   40.19 input   60.00 | X-H torsion
[ 3372  414  413  411 ] final  153.84 input   60.00 | X-H torsion
[ 4268 1114 1113 1110 ] final  126.72 input   59.99 | X-H torsion
[ 4409  924  923  921 ] final   62.17 input   59.99 | X-H torsion
[ 4183 1244 1243 1241 ] final  -39.54 input   59.99 | X-H torsion
[ 3800  178  177  174 ] final  -32.89 input   60.00 | X-H torsion
[ 3793  171  170  167 ] final  -62.12 input   60.00 | X-H torsion
[ 3576  185  184  181 ] final  103.07 input   60.00 | X-H torsion
[ 3523  346  345  342 ] final  123.08 input   60.01 | X-H torsion
[ 3515  339  338  335 ] final -158.49 input   60.00 | X-H torsion
[ 3663  154  153  150 ] final  102.93 input   60.00 | X-H torsion
[ 4280 1130 1129 1126 ] final  166.23 input   60.00 | X-H torsion

> <Gold.Protein.ActiveResidues>
 VAL20   THR21   CYS22   GLY23   THR24   THR25   THR26   LEU27   ASN28   PRO39  
 ARG40   HIS41   VAL42   CYS44   THR45   SER46   ASP48   MET49   LEU50   PRO52  
 TYR54   TYR118  ASN119  ILE136  GLY138  SER139  PHE140  LEU141  ASN142  GLY143 
 SER144  CYS145  GLY146  SER147  TYR161  HIS163  HIS164  MET165  GLU166  LEU167 
 PRO168  THR169  GLY170  VAL171  HIS172  ALA173  PHE181  PHE185  VAL186  ASP187 
 ARG188  GLN189  THR190  ALA191  GLN192  ALA193 

> <Gold.Protein.RotatedAtoms>
  -14.7412   16.9901   76.3322 H   0  0  0  0  0  0  0  0  0  0  0  0  # atno 3372 bound_to 414 
   -2.6432   21.6117   75.7009 H   0  0  0  0  0  0  0  0  0  0  0  0  # atno 3515 bound_to 339 
   -1.9649   18.1157   73.1042 H   0  0  0  0  0  0  0  0  0  0  0  0  # atno 3523 bound_to 346 
   -7.8757   26.8483   63.7498 H   0  0  0  0  0  0  0  0  0  0  0  0  # atno 3576 bound_to 185 
   -7.9550   29.9386   64.9672 H   0  0  0  0  0  0  0  0  0  0  0  0  # atno 3663 bound_to 154 
   -2.7949   25.0004   72.6868 H   0  0  0  0  0  0  0  0  0  0  0  0  # atno 3793 bound_to 171 
   -6.2158   22.8122   71.3574 H   0  0  0  0  0  0  0  0  0  0  0  0  # atno 3800 bound_to 178 
  -15.2772    7.5963   76.9732 H   0  0  0  0  0  0  0  0  0  0  0  0  # atno 3973 bound_to 1471
  -20.7338   13.2618   64.6493 H   0  0  0  0  0  0  0  0  0  0  0  0  # atno 4183 bound_to 1244
  -14.0877   15.5833   60.9829 H   0  0  0  0  0  0  0  0  0  0  0  0  # atno 4268 bound_to 1114
  -15.7747   18.5875   58.7279 H   0  0  0  0  0  0  0  0  0  0  0  0  # atno 4280 bound_to 1130
  -10.8036   15.0038   56.3822 H   0  0  0  0  0  0  0  0  0  0  0  0  # atno 4409 bound_to 924 
  -15.0554    9.0979   77.5597 LP  0  0  0  0  0  0  0  0  0  0  0  0  # atno 4696 bound_to 1471
  -15.7022    7.9355   78.5069 LP  0  0  0  0  0  0  0  0  0  0  0  0  # atno 4697 bound_to 1471
  -13.9284   18.1833   75.5815 LP  0  0  0  0  0  0  0  0  0  0  0  0  # atno 4731 bound_to 414 
  -15.4261   17.7698   75.0787 LP  0  0  0  0  0  0  0  0  0  0  0  0  # atno 4732 bound_to 414 
  -13.3153   16.4413   62.1298 LP  0  0  0  0  0  0  0  0  0  0  0  0  # atno 4733 bound_to 1114
  -12.5059   15.3209   61.2603 LP  0  0  0  0  0  0  0  0  0  0  0  0  # atno 4734 bound_to 1114
  -12.1904   15.4318   57.1181 LP  0  0  0  0  0  0  0  0  0  0  0  0  # atno 4763 bound_to 924 
  -10.8742   15.0523   58.0072 LP  0  0  0  0  0  0  0  0  0  0  0  0  # atno 4764 bound_to 924 
  -19.8516   13.7671   63.3788 LP  0  0  0  0  0  0  0  0  0  0  0  0  # atno 4771 bound_to 1244
  -20.7792   12.4291   63.2520 LP  0  0  0  0  0  0  0  0  0  0  0  0  # atno 4772 bound_to 1244
   -7.6222   22.6196   72.1531 LP  0  0  0  0  0  0  0  0  0  0  0  0  # atno 4775 bound_to 178 
   -6.7822   24.0124   72.2992 LP  0  0  0  0  0  0  0  0  0  0  0  0  # atno 4776 bound_to 178 
   -1.8024   23.7833   72.2607 LP  0  0  0  0  0  0  0  0  0  0  0  0  # atno 4779 bound_to 171 
   -3.3633   23.7741   71.7808 LP  0  0  0  0  0  0  0  0  0  0  0  0  # atno 4780 bound_to 171 
   -8.7590   25.4829   63.8062 LP  0  0  0  0  0  0  0  0  0  0  0  0  # atno 4783 bound_to 185 
   -7.3174   25.4950   63.0393 LP  0  0  0  0  0  0  0  0  0  0  0  0  # atno 4784 bound_to 185 
   -3.5794   18.0033   72.9338 LP  0  0  0  0  0  0  0  0  0  0  0  0  # atno 4785 bound_to 346 
   -2.6249   16.7344   72.5522 LP  0  0  0  0  0  0  0  0  0  0  0  0  # atno 4786 bound_to 346 
   -3.4397   22.0318   74.3455 LP  0  0  0  0  0  0  0  0  0  0  0  0  # atno 4787 bound_to 339 
   -3.3891   20.4686   74.8149 LP  0  0  0  0  0  0  0  0  0  0  0  0  # atno 4788 bound_to 339 
   -8.2537   28.4118   65.4444 LP  0  0  0  0  0  0  0  0  0  0  0  0  # atno 4797 bound_to 154 
   -6.7151   28.9421   65.3103 LP  0  0  0  0  0  0  0  0  0  0  0  0  # atno 4798 bound_to 154 

> <Gold.Score>
     Score     S(PLP)   S(hbond)     S(cho)   S(metal)  DE(clash)   DE(tors)     intcor
     50.30     -47.84       0.00       1.00       0.00       0.00       0.27       0.00

> <Gold.PLP.Fitness>
50.2984

> <Gold.PLP.PLP>
-47.8388

> <Gold.PLP.part.hbond>
0.0000

> <Gold.PLP.part.metal>
0.0000

> <Gold.PLP.part.buried>
-7.1929

> <Gold.PLP.part.nonpolar>
-41.2357

> <Gold.PLP.part.repulsive>
0.3453

> <Gold.PLP.ligand.clash>
0.0000

> <Gold.PLP.ligand.torsion>
0.2704

> <Gold.PLP.Chemscore.Hbond>
0.0000

> <Gold.PLP.Chemscore.CHOScore>
1.0000

> <Gold.PLP.Chemscore.Metal>
0.0000

> <Gold.Chemscore.Hbonds>
donor molecule, donor type, donor heavy atom, donor atom, acceptor molecule, acceptor atom, score
      L1  C    16    35       P1  1081  1.00

> <Gold.PLP.Chemscore.Internal.Correction>
0.0004

