unknown|prepared_Mpro-x0395|sdf|1|dock3
  -GOLD-   5 72214353D 1   1.00000     0.00000

 26 27  0  0  0  0  0  0  0  0  1 V2000
  -11.8011   12.0617   65.1473 C   0  0  0  0  0  0  0  0  0  0  0  0
  -11.6249   12.8824   66.3902 C   0  0  0  0  0  0  0  0  0  0  0  0
  -10.8931   12.6198   67.4679 N   0  0  0  0  0  0  0  0  0  0  0  0
  -10.8669   13.4385   68.4277 N   0  0  0  0  0  0  0  0  0  0  0  0
  -11.5715   14.5634   68.3603 C   0  0  0  0  0  0  0  0  0  0  0  0
  -11.6778   15.6652   69.3868 C   0  0  0  0  0  0  0  0  0  0  0  0
  -11.8915   15.0528   70.6662 N   0  0  0  0  0  0  0  0  0  0  0  0
  -12.9541   14.1304   70.7130 C   0  0  0  0  0  0  0  0  0  0  0  0
  -14.1554   14.5485   71.5027 C   0  0  0  0  0  0  0  0  0  0  0  0
  -13.8012   15.1696   72.8016 C   0  0  0  0  0  0  0  0  0  0  0  0
  -12.6221   15.7674   72.8853 C   0  0  0  0  0  0  0  0  0  0  0  0
  -12.3033   16.3350   74.0794 F   0  0  0  0  0  0  0  0  0  0  0  0
  -11.6497   15.8577   71.7919 C   0  0  0  0  0  0  0  0  0  0  0  0
  -12.2971   14.4014   66.8217 S   0  0  0  0  0  0  0  0  0  0  0  0
  -12.1149   12.7237   64.3260 H   0  0  0  0  0  0  0  0  0  0  0  0
  -10.8045   11.6309   64.8387 H   0  0  0  0  0  0  0  0  0  0  0  0
  -12.5570   11.2790   65.3225 H   0  0  0  0  0  0  0  0  0  0  0  0
  -10.7495   16.2350   69.3175 H   0  0  0  0  0  0  0  0  0  0  0  0
  -12.5889   16.2416   69.1328 H   0  0  0  0  0  0  0  0  0  0  0  0
  -13.3146   13.9574   69.6565 H   0  0  0  0  0  0  0  0  0  0  0  0
  -12.5877   13.1216   71.0494 H   0  0  0  0  0  0  0  0  0  0  0  0
  -14.7411   13.6326   71.7272 H   0  0  0  0  0  0  0  0  0  0  0  0
  -14.8241   15.1985   70.8956 H   0  0  0  0  0  0  0  0  0  0  0  0
  -14.5080   15.1082   73.6081 H   0  0  0  0  0  0  0  0  0  0  0  0
  -11.6329   16.9371   71.4581 H   0  0  0  0  0  0  0  0  0  0  0  0
  -10.6277   15.7115   72.2518 H   0  0  0  0  0  0  0  0  0  0  0  0
  1  2  1  0  0  0  0
  2  3  2  0  0  0  0
  3  4  1  0  0  0  0
  4  5  2  0  0  0  0
  5  6  1  0  0  0  0
  6  7  1  0  0  0  0
  7  8  1  0  0  0  0
  8  9  1  0  0  0  0
  9 10  1  0  0  0  0
 10 11  2  0  0  0  0
 11 12  1  0  0  0  0
 11 13  1  0  0  0  0
  5 14  1  0  0  0  0
 14  2  1  0  0  0  0
 13  7  1  0  0  0  0
  1 15  1  0  0  0  0
  1 16  1  0  0  0  0
  1 17  1  0  0  0  0
  6 18  1  0  0  0  0
  6 19  1  0  0  0  0
  8 20  1  0  0  0  0
  8 21  1  0  0  0  0
  9 22  1  0  0  0  0
  9 23  1  0  0  0  0
 10 24  1  0  0  0  0
 13 25  1  0  0  0  0
 13 26  1  0  0  0  0
M  END
> <Gold.Version>
2022.1.0

> <Gold.Id.Protein>
6LU7|6LU7_protein|mol2

> <Gold.PLP.Fitness>
41.7788

> <Gold.PLP.PLP>
-42.1264

> <Gold.PLP.part.hbond>
0.0000

> <Gold.PLP.part.metal>
0.0000

> <Gold.PLP.part.buried>
-5.6232

> <Gold.PLP.part.nonpolar>
-37.4125

> <Gold.PLP.part.repulsive>
0.2521

> <Gold.PLP.ligand.clash>
0.0000

> <Gold.PLP.ligand.torsion>
0.2523

> <Gold.PLP.Chemscore.Hbond>
0.0000

> <Gold.PLP.Chemscore.CHOScore>
0.0000

> <Gold.PLP.Chemscore.Metal>
0.0000

> <Gold.PLP.Chemscore.Internal.Correction>
0.1570

> <Gold.Protein.RotatedTorsions>
[ 3973 1471 1470 1467 ] final   94.96 input   60.00 | X-H torsion
[ 3372  414  413  411 ] final  -80.91 input   60.00 | X-H torsion
[ 4268 1114 1113 1110 ] final  148.70 input   59.99 | X-H torsion
[ 4409  924  923  921 ] final  -74.81 input   59.99 | X-H torsion
[ 4183 1244 1243 1241 ] final  -30.37 input   59.99 | X-H torsion
[ 3800  178  177  174 ] final   35.31 input   60.00 | X-H torsion
[ 3793  171  170  167 ] final  -90.81 input   60.00 | X-H torsion
[ 3576  185  184  181 ] final  117.43 input   60.00 | X-H torsion
[ 3523  346  345  342 ] final  -82.83 input   60.01 | X-H torsion
[ 3515  339  338  335 ] final  -25.74 input   60.00 | X-H torsion
[ 3663  154  153  150 ] final  107.25 input   60.00 | X-H torsion
[ 4280 1130 1129 1126 ] final -117.87 input   60.00 | X-H torsion

> <Gold.Protein.ActiveResidues>
 VAL20   THR21   CYS22   GLY23   THR24   THR25   THR26   LEU27   ASN28   PRO39  
 ARG40   HIS41   VAL42   CYS44   THR45   SER46   ASP48   MET49   LEU50   PRO52  
 TYR54   TYR118  ASN119  ILE136  GLY138  SER139  PHE140  LEU141  ASN142  GLY143 
 SER144  CYS145  GLY146  SER147  TYR161  HIS163  HIS164  MET165  GLU166  LEU167 
 PRO168  THR169  GLY170  VAL171  HIS172  ALA173  PHE181  PHE185  VAL186  ASP187 
 ARG188  GLN189  THR190  ALA191  GLN192  ALA193 

> <Gold.Protein.RotatedAtoms>
  -15.3762   17.8330   75.0472 H   0  0  0  0  0  0  0  0  0  0  0  0  # atno 3372 bound_to 414 
   -3.4851   20.5503   74.6486 H   0  0  0  0  0  0  0  0  0  0  0  0  # atno 3515 bound_to 339 
   -3.1628   16.8533   72.5551 H   0  0  0  0  0  0  0  0  0  0  0  0  # atno 3523 bound_to 346 
   -7.6741   26.8218   63.6341 H   0  0  0  0  0  0  0  0  0  0  0  0  # atno 3576 bound_to 185 
   -7.8876   29.9592   64.9622 H   0  0  0  0  0  0  0  0  0  0  0  0  # atno 3663 bound_to 154 
   -2.3480   24.9033   72.7644 H   0  0  0  0  0  0  0  0  0  0  0  0  # atno 3793 bound_to 171 
   -6.1816   23.7647   71.7977 H   0  0  0  0  0  0  0  0  0  0  0  0  # atno 3800 bound_to 178 
  -15.6080    7.3108   77.7153 H   0  0  0  0  0  0  0  0  0  0  0  0  # atno 3973 bound_to 1471
  -20.8150   13.1382   64.6264 H   0  0  0  0  0  0  0  0  0  0  0  0  # atno 4183 bound_to 1244
  -13.8571   15.3574   60.8307 H   0  0  0  0  0  0  0  0  0  0  0  0  # atno 4268 bound_to 1114
  -16.3238   19.2573   57.9693 H   0  0  0  0  0  0  0  0  0  0  0  0  # atno 4280 bound_to 1130
  -12.1566   15.4290   57.3936 H   0  0  0  0  0  0  0  0  0  0  0  0  # atno 4409 bound_to 924 
  -14.9785    8.5599   76.8838 LP  0  0  0  0  0  0  0  0  0  0  0  0  # atno 4696 bound_to 1471
  -15.4459    8.7610   78.4355 LP  0  0  0  0  0  0  0  0  0  0  0  0  # atno 4697 bound_to 1471
  -14.8197   16.9648   76.3060 LP  0  0  0  0  0  0  0  0  0  0  0  0  # atno 4731 bound_to 414 
  -13.8954   18.1395   75.6483 LP  0  0  0  0  0  0  0  0  0  0  0  0  # atno 4732 bound_to 414 
  -13.6577   16.4493   62.0206 LP  0  0  0  0  0  0  0  0  0  0  0  0  # atno 4733 bound_to 1114
  -12.3957   15.5403   61.5228 LP  0  0  0  0  0  0  0  0  0  0  0  0  # atno 4734 bound_to 1114
  -10.6579   14.9843   57.8455 LP  0  0  0  0  0  0  0  0  0  0  0  0  # atno 4763 bound_to 924 
  -11.0440   15.0716   56.2612 LP  0  0  0  0  0  0  0  0  0  0  0  0  # atno 4764 bound_to 924 
  -19.8551   13.8358   63.5129 LP  0  0  0  0  0  0  0  0  0  0  0  0  # atno 4771 bound_to 1244
  -20.6939   12.4849   63.1410 LP  0  0  0  0  0  0  0  0  0  0  0  0  # atno 4772 bound_to 1244
   -6.8435   22.3061   71.5104 LP  0  0  0  0  0  0  0  0  0  0  0  0  # atno 4775 bound_to 178 
   -7.5954   23.3667   72.4985 LP  0  0  0  0  0  0  0  0  0  0  0  0  # atno 4776 bound_to 178 
   -2.0641   23.4918   72.0062 LP  0  0  0  0  0  0  0  0  0  0  0  0  # atno 4779 bound_to 171 
   -3.5517   24.1634   71.9572 LP  0  0  0  0  0  0  0  0  0  0  0  0  # atno 4780 bound_to 171 
   -8.8148   25.6920   63.8993 LP  0  0  0  0  0  0  0  0  0  0  0  0  # atno 4783 bound_to 185 
   -7.4646   25.3126   63.0629 LP  0  0  0  0  0  0  0  0  0  0  0  0  # atno 4784 bound_to 185 
   -1.7815   17.6233   72.9388 LP  0  0  0  0  0  0  0  0  0  0  0  0  # atno 4785 bound_to 346 
   -3.2165   18.3857   73.1002 LP  0  0  0  0  0  0  0  0  0  0  0  0  # atno 4786 bound_to 346 
   -2.6439   21.4079   75.7462 LP  0  0  0  0  0  0  0  0  0  0  0  0  # atno 4787 bound_to 339 
   -3.3369   22.1614   74.4739 LP  0  0  0  0  0  0  0  0  0  0  0  0  # atno 4788 bound_to 339 
   -8.3061   28.4574   65.4287 LP  0  0  0  0  0  0  0  0  0  0  0  0  # atno 4797 bound_to 154 
   -6.7307   28.8759   65.3310 LP  0  0  0  0  0  0  0  0  0  0  0  0  # atno 4798 bound_to 154 

$$$$
