unknown|prepared_Mpro-x0395|sdf|1|dock1
  -GOLD-   5 72214353D 1   1.00000     0.00000

 26 27  0  0  0  0  0  0  0  0  1 V2000
  -12.8398   15.6091   73.9068 C   0  0  0  0  0  0  0  0  0  0  0  0
  -12.6119   15.2484   72.4689 C   0  0  0  0  0  0  0  0  0  0  0  0
  -13.1179   14.2369   71.7711 N   0  0  0  0  0  0  0  0  0  0  0  0
  -12.8084   14.0910   70.5566 N   0  0  0  0  0  0  0  0  0  0  0  0
  -11.9764   14.9491   69.9757 C   0  0  0  0  0  0  0  0  0  0  0  0
  -11.4821   14.9552   68.5492 C   0  0  0  0  0  0  0  0  0  0  0  0
  -12.1266   13.8763   67.8577 N   0  0  0  0  0  0  0  0  0  0  0  0
  -11.8827   12.5975   68.3938 C   0  0  0  0  0  0  0  0  0  0  0  0
  -11.0340   11.6857   67.5632 C   0  0  0  0  0  0  0  0  0  0  0  0
  -11.4018   11.7083   66.1271 C   0  0  0  0  0  0  0  0  0  0  0  0
  -11.9634   12.8147   65.6633 C   0  0  0  0  0  0  0  0  0  0  0  0
  -12.2984   12.8289   64.3453 F   0  0  0  0  0  0  0  0  0  0  0  0
  -12.2449   14.0099   66.4643 C   0  0  0  0  0  0  0  0  0  0  0  0
  -11.6417   16.0081   71.2744 S   0  0  0  0  0  0  0  0  0  0  0  0
  -12.6202   16.6788   74.0437 H   0  0  0  0  0  0  0  0  0  0  0  0
  -13.9329   15.4795   74.1566 H   0  0  0  0  0  0  0  0  0  0  0  0
  -12.1894   14.9959   74.5516 H   0  0  0  0  0  0  0  0  0  0  0  0
  -11.7200   15.9427   68.1499 H   0  0  0  0  0  0  0  0  0  0  0  0
  -10.3989   14.7279   68.5932 H   0  0  0  0  0  0  0  0  0  0  0  0
  -11.3403   12.7271   69.3761 H   0  0  0  0  0  0  0  0  0  0  0  0
  -12.8492   12.0956   68.6750 H   0  0  0  0  0  0  0  0  0  0  0  0
  -11.2025   10.6507   67.9277 H   0  0  0  0  0  0  0  0  0  0  0  0
   -9.9526   11.8941   67.7225 H   0  0  0  0  0  0  0  0  0  0  0  0
  -11.1989   10.8368   65.5329 H   0  0  0  0  0  0  0  0  0  0  0  0
  -11.5229   14.8093   66.1229 H   0  0  0  0  0  0  0  0  0  0  0  0
  -13.2482   14.4023   66.1227 H   0  0  0  0  0  0  0  0  0  0  0  0
  1  2  1  0  0  0  0
  2  3  2  0  0  0  0
  3  4  1  0  0  0  0
  4  5  2  0  0  0  0
  5  6  1  0  0  0  0
  6  7  1  0  0  0  0
  7  8  1  0  0  0  0
  8  9  1  0  0  0  0
  9 10  1  0  0  0  0
 10 11  2  0  0  0  0
 11 12  1  0  0  0  0
 11 13  1  0  0  0  0
  5 14  1  0  0  0  0
 14  2  1  0  0  0  0
 13  7  1  0  0  0  0
  1 15  1  0  0  0  0
  1 16  1  0  0  0  0
  1 17  1  0  0  0  0
  6 18  1  0  0  0  0
  6 19  1  0  0  0  0
  8 20  1  0  0  0  0
  8 21  1  0  0  0  0
  9 22  1  0  0  0  0
  9 23  1  0  0  0  0
 10 24  1  0  0  0  0
 13 25  1  0  0  0  0
 13 26  1  0  0  0  0
M  END
> <Gold.Version>
2022.1.0

> <Gold.Id.Protein>
6LU7|6LU7_protein|mol2

> <Gold.PLP.Fitness>
40.4265

> <Gold.PLP.PLP>
-40.5576

> <Gold.PLP.part.hbond>
0.0000

> <Gold.PLP.part.metal>
0.0000

> <Gold.PLP.part.buried>
-6.9887

> <Gold.PLP.part.nonpolar>
-34.7035

> <Gold.PLP.part.repulsive>
0.2970

> <Gold.PLP.ligand.clash>
0.0000

> <Gold.PLP.ligand.torsion>
0.1454

> <Gold.PLP.Chemscore.Hbond>
0.0000

> <Gold.PLP.Chemscore.CHOScore>
0.0000

> <Gold.PLP.Chemscore.Metal>
0.0000

> <Gold.PLP.Chemscore.Internal.Correction>
0.1598

> <Gold.Protein.RotatedTorsions>
[ 3973 1471 1470 1467 ] final  140.13 input   60.00 | X-H torsion
[ 3372  414  413  411 ] final   49.56 input   60.00 | X-H torsion
[ 4268 1114 1113 1110 ] final  114.89 input   59.99 | X-H torsion
[ 4409  924  923  921 ] final   35.63 input   59.99 | X-H torsion
[ 4183 1244 1243 1241 ] final   34.96 input   59.99 | X-H torsion
[ 3800  178  177  174 ] final   12.59 input   60.00 | X-H torsion
[ 3793  171  170  167 ] final  118.29 input   60.00 | X-H torsion
[ 3576  185  184  181 ] final  -57.16 input   60.00 | X-H torsion
[ 3523  346  345  342 ] final  -51.22 input   60.01 | X-H torsion
[ 3515  339  338  335 ] final  170.72 input   60.00 | X-H torsion
[ 3663  154  153  150 ] final -115.30 input   60.00 | X-H torsion
[ 4280 1130 1129 1126 ] final  -66.56 input   60.00 | X-H torsion

> <Gold.Protein.ActiveResidues>
 VAL20   THR21   CYS22   GLY23   THR24   THR25   THR26   LEU27   ASN28   PRO39  
 ARG40   HIS41   VAL42   CYS44   THR45   SER46   ASP48   MET49   LEU50   PRO52  
 TYR54   TYR118  ASN119  ILE136  GLY138  SER139  PHE140  LEU141  ASN142  GLY143 
 SER144  CYS145  GLY146  SER147  TYR161  HIS163  HIS164  MET165  GLU166  LEU167 
 PRO168  THR169  GLY170  VAL171  HIS172  ALA173  PHE181  PHE185  VAL186  ASP187 
 ARG188  GLN189  THR190  ALA191  GLN192  ALA193 

> <Gold.Protein.RotatedAtoms>
  -13.8569   18.0391   75.7819 H   0  0  0  0  0  0  0  0  0  0  0  0  # atno 3372 bound_to 414 
   -2.7305   22.0366   75.4582 H   0  0  0  0  0  0  0  0  0  0  0  0  # atno 3515 bound_to 339 
   -3.5285   17.1960   72.6497 H   0  0  0  0  0  0  0  0  0  0  0  0  # atno 3523 bound_to 346 
   -8.3637   25.0903   63.4789 H   0  0  0  0  0  0  0  0  0  0  0  0  # atno 3576 bound_to 185 
   -6.8503   28.6293   65.4092 H   0  0  0  0  0  0  0  0  0  0  0  0  # atno 3663 bound_to 154 
   -2.5057   23.3769   71.8003 H   0  0  0  0  0  0  0  0  0  0  0  0  # atno 3793 bound_to 171 
   -6.0687   23.4819   71.5894 H   0  0  0  0  0  0  0  0  0  0  0  0  # atno 3800 bound_to 178 
  -15.7200    7.6572   78.3354 H   0  0  0  0  0  0  0  0  0  0  0  0  # atno 3973 bound_to 1471
  -21.0432   12.4436   63.9290 H   0  0  0  0  0  0  0  0  0  0  0  0  # atno 4183 bound_to 1244
  -14.1662   15.7193   61.0952 H   0  0  0  0  0  0  0  0  0  0  0  0  # atno 4268 bound_to 1114
  -16.4238   20.0336   58.1802 H   0  0  0  0  0  0  0  0  0  0  0  0  # atno 4280 bound_to 1130
  -11.1918   15.1179   56.2372 H   0  0  0  0  0  0  0  0  0  0  0  0  # atno 4409 bound_to 924 
  -15.1547    7.8602   76.8230 LP  0  0  0  0  0  0  0  0  0  0  0  0  # atno 4696 bound_to 1471
  -15.1569    9.1118   77.8718 LP  0  0  0  0  0  0  0  0  0  0  0  0  # atno 4697 bound_to 1471
  -15.2718   17.9528   74.9827 LP  0  0  0  0  0  0  0  0  0  0  0  0  # atno 4731 bound_to 414 
  -14.9733   16.9440   76.2317 LP  0  0  0  0  0  0  0  0  0  0  0  0  # atno 4732 bound_to 414 
  -13.1271   16.3965   62.1486 LP  0  0  0  0  0  0  0  0  0  0  0  0  # atno 4733 bound_to 1114
  -12.6150   15.2287   61.1284 LP  0  0  0  0  0  0  0  0  0  0  0  0  # atno 4734 bound_to 1114
  -12.1142   15.4166   57.5440 LP  0  0  0  0  0  0  0  0  0  0  0  0  # atno 4763 bound_to 924 
  -10.5593   14.9526   57.7274 LP  0  0  0  0  0  0  0  0  0  0  0  0  # atno 4764 bound_to 924 
  -20.2684   13.7798   64.4411 LP  0  0  0  0  0  0  0  0  0  0  0  0  # atno 4771 bound_to 1244
  -20.0507   13.2405   62.9152 LP  0  0  0  0  0  0  0  0  0  0  0  0  # atno 4772 bound_to 1244
   -7.1623   22.2818   71.6996 LP  0  0  0  0  0  0  0  0  0  0  0  0  # atno 4775 bound_to 178 
   -7.3902   23.6758   72.5191 LP  0  0  0  0  0  0  0  0  0  0  0  0  # atno 4776 bound_to 178 
   -3.5080   24.5866   72.2245 LP  0  0  0  0  0  0  0  0  0  0  0  0  # atno 4779 bound_to 171 
   -1.9490   24.6060   72.7099 LP  0  0  0  0  0  0  0  0  0  0  0  0  # atno 4780 bound_to 171 
   -7.1458   26.1131   63.1346 LP  0  0  0  0  0  0  0  0  0  0  0  0  # atno 4783 bound_to 185 
   -8.4391   26.6354   63.9838 LP  0  0  0  0  0  0  0  0  0  0  0  0  # atno 4784 bound_to 185 
   -1.9055   17.1576   72.7613 LP  0  0  0  0  0  0  0  0  0  0  0  0  # atno 4785 bound_to 346 
   -2.7241   18.5063   73.1824 LP  0  0  0  0  0  0  0  0  0  0  0  0  # atno 4786 bound_to 346 
   -3.6217   21.6005   74.1684 LP  0  0  0  0  0  0  0  0  0  0  0  0  # atno 4787 bound_to 339 
   -3.1191   20.4720   75.2364 LP  0  0  0  0  0  0  0  0  0  0  0  0  # atno 4788 bound_to 339 
   -7.6053   29.9972   64.9542 LP  0  0  0  0  0  0  0  0  0  0  0  0  # atno 4797 bound_to 154 
   -8.4761   28.6753   65.3554 LP  0  0  0  0  0  0  0  0  0  0  0  0  # atno 4798 bound_to 154 

$$$$
