#       Name:                unknown
#       Creating user name   williammccorkindale
#       Creation time:       Tue Jun  7 14:55:40 2022


#       File generated by GOLD software.
#

@<TRIPOS>MOLECULE
unknown|prepared_Mpro-x0946|mol2|1|dock5
    18    18     1
SMALL
NO_CHARGES


@<TRIPOS>ATOM
      1 Br1        -13.2458  16.1979  73.3927 Br             1 RES1               0.0000
      2 C2         -12.8751  14.7098  72.2665 C.ar           1 RES1               0.0000
      3 C3         -12.0881  14.8149  71.1254 C.ar           1 RES1               0.0000
      4 C4         -11.8451  13.7048  70.3357 C.ar           1 RES1               0.0000
      5 C5         -12.3689  12.4669  70.6477 C.ar           1 RES1               0.0000
      6 S6         -12.0440  11.0811  69.6294 S.o2           1 RES1               0.0000
      7 N7         -13.1081   9.7984  70.1288 N.3            1 RES1               0.0000
      8 O8         -12.2999  11.3643  68.2019 O.2            1 RES1               0.0000
      9 O9         -10.6525  10.6284  69.9135 O.2            1 RES1               0.0000
     10 C10        -13.1508  12.3589  71.7801 C.ar           1 RES1               0.0000
     11 C11        -13.4034  13.4754  72.5867 C.ar           1 RES1               0.0000
     12 H12        -11.6833  15.7872  70.8902 H              1 RES1               0.0000
     13 H13        -11.2264  13.7961  69.4420 H              1 RES1               0.0000
     14 H14        -13.5188   9.4082  69.2354 H              1 RES1               0.0000
     15 H15        -13.8900  10.2049  70.6754 H              1 RES1               0.0000
     16 H16        -13.5499  11.3833  72.0055 H              1 RES1               0.0000
     17 H17        -14.0174  13.3688  73.4677 H              1 RES1               0.0000
     18 ****       -12.6287   9.1115  70.6750 LP             1 RES1               0.0000
@<TRIPOS>BOND
    1    1    2 1     
    2    2    3 ar    
    3    3    4 ar    
    4    4    5 ar    
    5    5    6 1     
    6    6    7 1     
    7    6    8 2     
    8    6    9 2     
    9    5   10 ar    
   10   10   11 ar    
   11   11    2 ar    
   12    3   12 1     
   13    4   13 1     
   14    7   14 1     
   15    7   15 1     
   16   10   16 1     
   17   11   17 1     
   18    7   18 1     
@<TRIPOS>SUBSTRUCTURE
      1 RES1           1
@<TRIPOS>SET
LONE_PAIRS      STATIC     ATOMS    <user>   **** ""
3 18 8 9
DONOR_HYDROGENS      STATIC     ATOMS    <user>   **** ""
2 14 15
ATOM$BLUE        STATIC     ATOMS    COLORGROUP SYSTEM
3 18 8 9
ATOM$RED        STATIC     ATOMS    COLORGROUP SYSTEM
2 14 15
@<TRIPOS>COMMENT
> <Gold.Version>
2022.1.0

> <Gold.Id.Protein>
6LU7|6LU7_protein|mol2

> <Gold.Protein.RotatedTorsions>
[ 3973 1471 1470 1467 ] final  -97.01 input   60.00 | X-H torsion
[ 3372  414  413  411 ] final   15.97 input   60.00 | X-H torsion
[ 4268 1114 1113 1110 ] final   22.59 input   59.99 | X-H torsion
[ 4409  924  923  921 ] final   37.96 input   59.99 | X-H torsion
[ 4183 1244 1243 1241 ] final   95.13 input   59.99 | X-H torsion
[ 3800  178  177  174 ] final   26.91 input   60.00 | X-H torsion
[ 3793  171  170  167 ] final   19.85 input   60.00 | X-H torsion
[ 3576  185  184  181 ] final -108.88 input   60.00 | X-H torsion
[ 3523  346  345  342 ] final  -74.99 input   60.01 | X-H torsion
[ 3515  339  338  335 ] final -128.23 input   60.00 | X-H torsion
[ 3663  154  153  150 ] final  -83.23 input   60.00 | X-H torsion
[ 4280 1130 1129 1126 ] final -135.29 input   60.00 | X-H torsion

> <Gold.Protein.ActiveResidues>
 VAL20   THR21   CYS22   GLY23   THR24   THR25   THR26   LEU27   ASN28   PRO39  
 ARG40   HIS41   VAL42   CYS44   THR45   SER46   ASP48   MET49   LEU50   PRO52  
 TYR54   TYR118  ASN119  ILE136  GLY138  SER139  PHE140  LEU141  ASN142  GLY143 
 SER144  CYS145  GLY146  SER147  TYR161  HIS163  HIS164  MET165  GLU166  LEU167 
 PRO168  THR169  GLY170  VAL171  HIS172  ALA173  PHE181  PHE185  VAL186  ASP187 
 ARG188  GLN189  THR190  ALA191  GLN192  ALA193 

> <Gold.Protein.RotatedAtoms>
  -14.0922   18.2936   75.3665 H   0  0  0  0  0  0  0  0  0  0  0  0  # atno 3372 bound_to 414 
   -2.6987   21.1273   75.7350 H   0  0  0  0  0  0  0  0  0  0  0  0  # atno 3515 bound_to 339 
   -3.2709   16.9201   72.5706 H   0  0  0  0  0  0  0  0  0  0  0  0  # atno 3523 bound_to 346 
   -7.6368   25.1801   63.1176 H   0  0  0  0  0  0  0  0  0  0  0  0  # atno 3576 bound_to 185 
   -7.2362   28.2988   65.5057 H   0  0  0  0  0  0  0  0  0  0  0  0  # atno 3663 bound_to 154 
   -3.5592   24.2967   72.0322 H   0  0  0  0  0  0  0  0  0  0  0  0  # atno 3793 bound_to 171 
   -6.1260   23.6692   71.7163 H   0  0  0  0  0  0  0  0  0  0  0  0  # atno 3800 bound_to 178 
  -15.1400    9.1097   77.8275 H   0  0  0  0  0  0  0  0  0  0  0  0  # atno 3973 bound_to 1471
  -20.6402   12.5324   63.0860 H   0  0  0  0  0  0  0  0  0  0  0  0  # atno 4183 bound_to 1244
  -13.5632   16.4539   62.0543 H   0  0  0  0  0  0  0  0  0  0  0  0  # atno 4268 bound_to 1114
  -16.2195   19.0054   58.0467 H   0  0  0  0  0  0  0  0  0  0  0  0  # atno 4280 bound_to 1130
  -11.1555   15.1071   56.2423 H   0  0  0  0  0  0  0  0  0  0  0  0  # atno 4409 bound_to 924 
  -15.7244    7.6907   78.3688 LP  0  0  0  0  0  0  0  0  0  0  0  0  # atno 4696 bound_to 1471
  -15.1714    7.8185   76.8376 LP  0  0  0  0  0  0  0  0  0  0  0  0  # atno 4697 bound_to 1471
  -15.5348   17.5513   75.2406 LP  0  0  0  0  0  0  0  0  0  0  0  0  # atno 4731 bound_to 414 
  -14.4732   17.0891   76.3921 LP  0  0  0  0  0  0  0  0  0  0  0  0  # atno 4732 bound_to 414 
  -12.4134   15.4743   61.4491 LP  0  0  0  0  0  0  0  0  0  0  0  0  # atno 4733 bound_to 1114
  -13.9359   15.4110   60.8620 LP  0  0  0  0  0  0  0  0  0  0  0  0  # atno 4734 bound_to 1114
  -12.1284   15.4203   57.5085 LP  0  0  0  0  0  0  0  0  0  0  0  0  # atno 4763 bound_to 924 
  -10.5817   14.9598   57.7578 LP  0  0  0  0  0  0  0  0  0  0  0  0  # atno 4764 bound_to 924 
  -20.8605   13.0622   64.6087 LP  0  0  0  0  0  0  0  0  0  0  0  0  # atno 4771 bound_to 1244
  -19.8646   13.8687   63.5966 LP  0  0  0  0  0  0  0  0  0  0  0  0  # atno 4772 bound_to 1244
   -6.9636   22.2812   71.5741 LP  0  0  0  0  0  0  0  0  0  0  0  0  # atno 4775 bound_to 178 
   -7.5312   23.4878   72.5168 LP  0  0  0  0  0  0  0  0  0  0  0  0  # atno 4776 bound_to 178 
   -2.2110   24.8348   72.7676 LP  0  0  0  0  0  0  0  0  0  0  0  0  # atno 4779 bound_to 171 
   -2.1848   23.4313   71.9332 LP  0  0  0  0  0  0  0  0  0  0  0  0  # atno 4780 bound_to 171 
   -7.4973   26.7517   63.5156 LP  0  0  0  0  0  0  0  0  0  0  0  0  # atno 4783 bound_to 185 
   -8.8197   25.9064   63.9668 LP  0  0  0  0  0  0  0  0  0  0  0  0  # atno 4784 bound_to 185 
   -1.7862   17.5022   72.8948 LP  0  0  0  0  0  0  0  0  0  0  0  0  # atno 4785 bound_to 346 
   -3.1029   18.4395   73.1285 LP  0  0  0  0  0  0  0  0  0  0  0  0  # atno 4786 bound_to 346 
   -3.1823   22.2748   74.6875 LP  0  0  0  0  0  0  0  0  0  0  0  0  # atno 4787 bound_to 339 
   -3.5906   20.7135   74.4384 LP  0  0  0  0  0  0  0  0  0  0  0  0  # atno 4788 bound_to 339 
   -7.1108   29.8449   65.0139 LP  0  0  0  0  0  0  0  0  0  0  0  0  # atno 4797 bound_to 154 
   -8.5820   29.1606   65.1985 LP  0  0  0  0  0  0  0  0  0  0  0  0  # atno 4798 bound_to 154 

> <Gold.Score>
     Score     S(PLP)   S(hbond)     S(cho)   S(metal)  DE(clash)   DE(tors)     intcor
     38.55     -32.79       2.00       0.00       0.00       0.00       1.17       2.11

> <Gold.PLP.Fitness>
38.5506

> <Gold.PLP.PLP>
-32.7896

> <Gold.PLP.part.hbond>
-2.0000

> <Gold.PLP.part.metal>
0.0000

> <Gold.PLP.part.buried>
-3.9806

> <Gold.PLP.part.nonpolar>
-28.5751

> <Gold.PLP.part.repulsive>
0.3078

> <Gold.PLP.ligand.clash>
0.0000

> <Gold.PLP.ligand.torsion>
1.1729

> <Gold.PLP.Chemscore.Hbond>
2.0000

> <Gold.PLP.Chemscore.CHOScore>
0.0000

> <Gold.PLP.Chemscore.Metal>
0.0000

> <Gold.Chemscore.Hbonds>
donor molecule, donor type, donor heavy atom, donor atom, acceptor molecule, acceptor atom, score
      L1  H     7    14       P1  1284  1.00
      P1  H  1281  4132       L1     8  1.00

> <Gold.PLP.Chemscore.Internal.Correction>
2.1069

