#       Name:                unknown
#       Creating user name   williammccorkindale
#       Creation time:       Tue Jun  7 14:55:41 2022


#       File generated by GOLD software.
#

@<TRIPOS>MOLECULE
unknown|prepared_Mpro-x0967|mol2|1|dock5
    41    41     1
SMALL
NO_CHARGES


@<TRIPOS>ATOM
      1 C1         -12.5987  13.3014  64.9982 C.3            1 RES1               0.0000
      2 C2         -11.9527  13.4131  66.3431 C.2            1 RES1               0.0000
      3 O3         -11.3147  12.4408  66.8127 O.2            1 RES1               0.0000
      4 N4         -12.0586  14.6146  67.1280 N.am           1 RES1               0.0000
      5 C5         -11.3658  14.5025  68.4466 C.3            1 RES1               0.0000
      6 C6         -12.6796  14.4548  69.3072 C.3            1 RES1               0.0000
      7 C7         -12.5603  14.8044  70.6519 C.ar           1 RES1               0.0000
      8 C8         -11.6896  15.4811  71.4647 C.ar           1 RES1               0.0000
      9 C9         -11.6731  15.8303  72.6750 C.ar           1 RES1               0.0000
     10 C10        -12.8713  15.4509  73.5456 C.ar           1 RES1               0.0000
     11 C11        -13.7673  14.7654  72.8045 C.ar           1 RES1               0.0000
     12 C12        -13.7560  14.4003  71.5270 C.ar           1 RES1               0.0000
     13 O13        -12.8980  15.9175  74.7888 O.3            1 RES1               0.0000
     14 C14        -10.6645  15.7989  68.6623 C.2            1 RES1               0.0000
     15 O15        -11.0516  16.9722  68.7056 O.2            1 RES1               0.0000
     16 N16         -9.2223  15.6265  68.8419 N.am           1 RES1               0.0000
     17 C17         -8.5582  16.6025  69.0533 C.3            1 RES1               0.0000
     18 C18         -7.9718  17.6613  67.7624 C.1            1 RES1               0.0000
     19 C19         -7.4327  18.6416  66.5468 C.1            1 RES1               0.0000
     20 Br20        -6.8298  19.7155  65.2336 Br             1 RES1               0.0000
     21 H21        -13.6813  13.4218  65.1322 H              1 RES1               0.0000
     22 H22        -12.2160  14.0685  64.2986 H              1 RES1               0.0000
     23 H23        -12.3962  12.2701  64.5917 H              1 RES1               0.0000
     24 H24        -12.5473  15.4148  66.8731 H              1 RES1               0.0000
     25 H25        -10.7461  13.6670  68.5995 H              1 RES1               0.0000
     26 H26        -13.2366  13.5835  69.0540 H              1 RES1               0.0000
     27 H27        -13.2949  15.2942  68.7025 H              1 RES1               0.0000
     28 H28        -10.6878  15.6047  70.9461 H              1 RES1               0.0000
     29 H29        -10.9807  16.3967  73.3028 H              1 RES1               0.0000
     30 H30        -14.6766  14.4106  73.4119 H              1 RES1               0.0000
     31 H31        -14.4599  13.8392  70.9386 H              1 RES1               0.0000
     32 H32        -13.6546  15.9928  75.4123 H              1 RES1               0.0000
     33 H33         -8.8111  14.6815  68.8517 H              1 RES1               0.0000
     34 H34         -8.9386  17.6675  69.5154 H              1 RES1               0.0000
     35 H35         -7.4500  16.7587  69.5247 H              1 RES1               0.0000
     36 ****       -11.2385  11.5927  66.2884 LP             1 RES1               0.0000
     37 ****       -10.8823  12.5137  67.7114 LP             1 RES1               0.0000
     38 ****       -12.5508  16.8518  74.7088 LP             1 RES1               0.0000
     39 ****       -12.2312  15.3548  75.2774 LP             1 RES1               0.0000
     40 ****       -12.0208  17.1839  68.5798 LP             1 RES1               0.0000
     41 ****       -10.3955  17.7096  68.8665 LP             1 RES1               0.0000
@<TRIPOS>BOND
    1    1    2 1     
    2    2    3 2     
    3    2    4 am    
    4    4    5 1     
    5    5    6 1     
    6    6    7 1     
    7    7    8 ar    
    8    8    9 ar    
    9    9   10 ar    
   10   10   11 ar    
   11   11   12 ar    
   12   10   13 1     
   13    5   14 1     
   14   14   15 2     
   15   14   16 am    
   16   16   17 1     
   17   17   18 1     
   18   18   19 3     
   19   19   20 1     
   20   12    7 ar    
   21    1   21 1     
   22    1   22 1     
   23    1   23 1     
   24    4   24 1     
   25    5   25 1     
   26    6   26 1     
   27    6   27 1     
   28    8   28 1     
   29    9   29 1     
   30   11   30 1     
   31   12   31 1     
   32   13   32 1     
   33   16   33 1     
   34   17   34 1     
   35   17   35 1     
   36    3   36 1     
   37    3   37 1     
   38   13   38 1     
   39   13   39 1     
   40   15   40 1     
   41   15   41 1     
@<TRIPOS>SUBSTRUCTURE
      1 RES1           1
@<TRIPOS>SET
LONE_PAIRS      STATIC     ATOMS    <user>   **** ""
6 36 37 38 39 40 41
DONOR_HYDROGENS      STATIC     ATOMS    <user>   **** ""
3 24 32 33
ATOM$BLUE        STATIC     ATOMS    COLORGROUP SYSTEM
6 36 37 38 39 40 41
ATOM$RED        STATIC     ATOMS    COLORGROUP SYSTEM
3 24 32 33
@<TRIPOS>COMMENT
> <Gold.Version>
2022.1.0

> <Gold.Id.Protein>
6LU7|6LU7_protein|mol2

> <Gold.Protein.RotatedTorsions>
[ 3973 1471 1470 1467 ] final  -80.27 input   60.00 | X-H torsion
[ 3372  414  413  411 ] final   24.33 input   60.00 | X-H torsion
[ 4268 1114 1113 1110 ] final  -67.06 input   59.99 | X-H torsion
[ 4409  924  923  921 ] final  136.92 input   59.99 | X-H torsion
[ 4183 1244 1243 1241 ] final  170.75 input   59.99 | X-H torsion
[ 3800  178  177  174 ] final  -79.29 input   60.00 | X-H torsion
[ 3793  171  170  167 ] final  -39.82 input   60.00 | X-H torsion
[ 3576  185  184  181 ] final  -74.29 input   60.00 | X-H torsion
[ 3523  346  345  342 ] final   13.37 input   60.01 | X-H torsion
[ 3515  339  338  335 ] final  134.73 input   60.00 | X-H torsion
[ 3663  154  153  150 ] final   36.90 input   60.00 | X-H torsion
[ 4280 1130 1129 1126 ] final -151.30 input   60.00 | X-H torsion

> <Gold.Protein.ActiveResidues>
 VAL20   THR21   CYS22   GLY23   THR24   THR25   THR26   LEU27   ASN28   PRO39  
 ARG40   HIS41   VAL42   CYS44   THR45   SER46   ASP48   MET49   LEU50   PRO52  
 TYR54   TYR118  ASN119  ILE136  GLY138  SER139  PHE140  LEU141  ASN142  GLY143 
 SER144  CYS145  GLY146  SER147  TYR161  HIS163  HIS164  MET165  GLU166  LEU167 
 PRO168  THR169  GLY170  VAL171  HIS172  ALA173  PHE181  PHE185  VAL186  ASP187 
 ARG188  GLN189  THR190  ALA191  GLN192  ALA193 

> <Gold.Protein.RotatedAtoms>
  -14.0102   18.2482   75.4657 H   0  0  0  0  0  0  0  0  0  0  0  0  # atno 3372 bound_to 414 
   -2.9813   22.2898   75.0026 H   0  0  0  0  0  0  0  0  0  0  0  0  # atno 3515 bound_to 339 
   -3.4917   18.1356   72.9909 H   0  0  0  0  0  0  0  0  0  0  0  0  # atno 3523 bound_to 346 
   -8.1284   25.0400   63.3379 H   0  0  0  0  0  0  0  0  0  0  0  0  # atno 3576 bound_to 185 
   -8.5753   29.1629   65.2002 H   0  0  0  0  0  0  0  0  0  0  0  0  # atno 3663 bound_to 154 
   -3.1238   24.9377   72.5493 H   0  0  0  0  0  0  0  0  0  0  0  0  # atno 3793 bound_to 171 
   -6.7684   22.3382   71.4757 H   0  0  0  0  0  0  0  0  0  0  0  0  # atno 3800 bound_to 178 
  -15.0573    9.0926   77.5685 H   0  0  0  0  0  0  0  0  0  0  0  0  # atno 3973 bound_to 1471
  -19.9493   13.4474   63.0318 H   0  0  0  0  0  0  0  0  0  0  0  0  # atno 4183 bound_to 1244
  -12.4332   15.8228   61.7957 H   0  0  0  0  0  0  0  0  0  0  0  0  # atno 4268 bound_to 1114
  -16.1037   18.8132   58.1795 H   0  0  0  0  0  0  0  0  0  0  0  0  # atno 4280 bound_to 1130
  -10.4325   14.9118   57.4525 H   0  0  0  0  0  0  0  0  0  0  0  0  # atno 4409 bound_to 924 
  -15.7032    7.9284   78.5041 LP  0  0  0  0  0  0  0  0  0  0  0  0  # atno 4696 bound_to 1471
  -15.2758    7.5980   76.9631 LP  0  0  0  0  0  0  0  0  0  0  0  0  # atno 4697 bound_to 1471
  -15.4935   17.6537   75.1587 LP  0  0  0  0  0  0  0  0  0  0  0  0  # atno 4731 bound_to 414 
  -14.5972   17.0325   76.3741 LP  0  0  0  0  0  0  0  0  0  0  0  0  # atno 4732 bound_to 414 
  -13.5134   15.1750   60.7654 LP  0  0  0  0  0  0  0  0  0  0  0  0  # atno 4733 bound_to 1114
  -13.9740   16.3459   61.8062 LP  0  0  0  0  0  0  0  0  0  0  0  0  # atno 4734 bound_to 1114
  -11.4848   15.2038   56.2461 LP  0  0  0  0  0  0  0  0  0  0  0  0  # atno 4763 bound_to 924 
  -11.9536   15.3730   57.8012 LP  0  0  0  0  0  0  0  0  0  0  0  0  # atno 4764 bound_to 924 
  -20.9891   12.3795   63.6847 LP  0  0  0  0  0  0  0  0  0  0  0  0  # atno 4771 bound_to 1244
  -20.4318   13.6299   64.5751 LP  0  0  0  0  0  0  0  0  0  0  0  0  # atno 4772 bound_to 1244
   -7.6284   23.2864   72.4804 LP  0  0  0  0  0  0  0  0  0  0  0  0  # atno 4775 bound_to 178 
   -6.2196   23.8230   71.8528 LP  0  0  0  0  0  0  0  0  0  0  0  0  # atno 4776 bound_to 178 
   -1.7419   24.0832   72.4590 LP  0  0  0  0  0  0  0  0  0  0  0  0  # atno 4779 bound_to 171 
   -3.0925   23.5374   71.7210 LP  0  0  0  0  0  0  0  0  0  0  0  0  # atno 4780 bound_to 171 
   -7.1952   26.3693   63.2385 LP  0  0  0  0  0  0  0  0  0  0  0  0  # atno 4783 bound_to 185 
   -8.6267   26.4298   64.0219 LP  0  0  0  0  0  0  0  0  0  0  0  0  # atno 4784 bound_to 185 
   -2.7936   16.7366   72.5397 LP  0  0  0  0  0  0  0  0  0  0  0  0  # atno 4785 bound_to 346 
   -1.8732   17.9810   73.0604 LP  0  0  0  0  0  0  0  0  0  0  0  0  # atno 4786 bound_to 346 
   -3.6662   21.0245   74.2425 LP  0  0  0  0  0  0  0  0  0  0  0  0  # atno 4787 bound_to 339 
   -2.8220   20.7931   75.6211 LP  0  0  0  0  0  0  0  0  0  0  0  0  # atno 4788 bound_to 339 
   -7.2353   28.2915   65.5057 LP  0  0  0  0  0  0  0  0  0  0  0  0  # atno 4797 bound_to 154 
   -7.1089   29.8437   65.0143 LP  0  0  0  0  0  0  0  0  0  0  0  0  # atno 4798 bound_to 154 

> <Gold.Score>
     Score     S(PLP)   S(hbond)     S(cho)   S(metal)  DE(clash)   DE(tors)     intcor
     49.61     -47.95       0.98       0.00       0.00       0.00       0.91       0.55

> <Gold.PLP.Fitness>
49.6054

> <Gold.PLP.PLP>
-47.9478

> <Gold.PLP.part.hbond>
-2.2005

> <Gold.PLP.part.metal>
0.0000

> <Gold.PLP.part.buried>
-6.0297

> <Gold.PLP.part.nonpolar>
-41.1084

> <Gold.PLP.part.repulsive>
0.1651

> <Gold.PLP.ligand.clash>
0.0000

> <Gold.PLP.ligand.torsion>
0.9116

> <Gold.PLP.Chemscore.Hbond>
0.9760

> <Gold.PLP.Chemscore.CHOScore>
0.0000

> <Gold.PLP.Chemscore.Metal>
0.0000

> <Gold.Chemscore.Hbonds>
donor molecule, donor type, donor heavy atom, donor atom, acceptor molecule, acceptor atom, score
      L1  H    13    32       P1  1441  0.98

> <Gold.PLP.Chemscore.Internal.Correction>
0.5528

