#       Name:                unknown
#       Creating user name   williammccorkindale
#       Creation time:       Tue Jun  7 14:55:37 2022


#       File generated by GOLD software.
#

@<TRIPOS>MOLECULE
unknown|prepared_Mpro-x0305|mol2|1|dock5
    22    22     1
SMALL
NO_CHARGES


@<TRIPOS>ATOM
      1 C1         -12.6038  15.1087  73.6288 C.3            1 RES1               0.0000
      2 C2         -12.6003  15.8943  72.3444 C.3            1 RES1               0.0000
      3 N3         -12.8643  15.1161  71.1816 N.pl3          1 RES1               0.0000
      4 C4         -12.7939  13.7003  71.1715 C.ar           1 RES1               0.0000
      5 C5         -12.0955  13.0082  70.2097 C.ar           1 RES1               0.0000
      6 C6         -12.0099  11.6342  70.1749 C.ar           1 RES1               0.0000
      7 C7         -12.6531  10.9088  71.1488 C.ar           1 RES1               0.0000
      8 C8         -12.6162   9.4762  71.1880 C.1            1 RES1               0.0000
      9 N9         -12.5782   8.3138  71.2354 N.1            1 RES1               0.0000
     10 C10        -13.3475  11.5941  72.1053 C.ar           1 RES1               0.0000
     11 N11        -13.4164  12.9536  72.1168 N.ar           1 RES1               0.0000
     12 H12        -13.4076  14.3550  73.6848 H              1 RES1               0.0000
     13 H13        -11.6464  14.5788  73.8066 H              1 RES1               0.0000
     14 H14        -12.6831  15.8626  74.4598 H              1 RES1               0.0000
     15 H15        -11.6369  16.4150  72.2748 H              1 RES1               0.0000
     16 H16        -13.4218  16.6573  72.4433 H              1 RES1               0.0000
     17 H17        -13.1209  15.5949  70.2951 H              1 RES1               0.0000
     18 H18        -11.5754  13.5597  69.4244 H              1 RES1               0.0000
     19 H19        -11.4506  11.1281  69.4016 H              1 RES1               0.0000
     20 H20        -13.8759  11.0967  72.8988 H              1 RES1               0.0000
     21 ****       -12.5455   7.3152  71.2761 LP             1 RES1               0.0000
     22 ****       -13.9371  13.4112  72.8375 LP             1 RES1               0.0000
@<TRIPOS>BOND
    1    1    2 1     
    2    2    3 1     
    3    3    4 1     
    4    4    5 ar    
    5    5    6 ar    
    6    6    7 ar    
    7    7    8 1     
    8    8    9 3     
    9    7   10 ar    
   10   10   11 ar    
   11    4   11 ar    
   12    1   12 1     
   13    1   13 1     
   14    1   14 1     
   15    2   15 1     
   16    2   16 1     
   17    3   17 1     
   18    5   18 1     
   19    6   19 1     
   20   10   20 1     
   21    9   21 1     
   22   11   22 1     
@<TRIPOS>SUBSTRUCTURE
      1 RES1           1
@<TRIPOS>SET
LONE_PAIRS      STATIC     ATOMS    <user>   **** ""
2 21 22
DONOR_HYDROGENS      STATIC     ATOMS    <user>   **** ""
1 17
ATOM$BLUE        STATIC     ATOMS    COLORGROUP SYSTEM
2 21 22
ATOM$RED        STATIC     ATOMS    COLORGROUP SYSTEM
1 17
@<TRIPOS>COMMENT
> <Gold.Version>
2022.1.0

> <Gold.Id.Protein>
6LU7|6LU7_protein|mol2

> <Gold.Protein.RotatedTorsions>
[ 3973 1471 1470 1467 ] final  105.44 input   60.00 | X-H torsion
[ 3372  414  413  411 ] final   50.38 input   60.00 | X-H torsion
[ 4268 1114 1113 1110 ] final  -42.80 input   59.99 | X-H torsion
[ 4409  924  923  921 ] final  -50.50 input   59.99 | X-H torsion
[ 4183 1244 1243 1241 ] final -113.20 input   59.99 | X-H torsion
[ 3800  178  177  174 ] final   76.72 input   60.00 | X-H torsion
[ 3793  171  170  167 ] final -129.64 input   60.00 | X-H torsion
[ 3576  185  184  181 ] final   15.93 input   60.00 | X-H torsion
[ 3523  346  345  342 ] final   51.64 input   60.01 | X-H torsion
[ 3515  339  338  335 ] final   52.53 input   60.00 | X-H torsion
[ 3663  154  153  150 ] final -157.18 input   60.00 | X-H torsion
[ 4280 1130 1129 1126 ] final  156.94 input   60.00 | X-H torsion

> <Gold.Protein.ActiveResidues>
 VAL20   THR21   CYS22   GLY23   THR24   THR25   THR26   LEU27   ASN28   PRO39  
 ARG40   HIS41   VAL42   CYS44   THR45   SER46   ASP48   MET49   LEU50   PRO52  
 TYR54   TYR118  ASN119  ILE136  GLY138  SER139  PHE140  LEU141  ASN142  GLY143 
 SER144  CYS145  GLY146  SER147  TYR161  HIS163  HIS164  MET165  GLU166  LEU167 
 PRO168  THR169  GLY170  VAL171  HIS172  ALA173  PHE181  PHE185  VAL186  ASP187 
 ARG188  GLN189  THR190  ALA191  GLN192  ALA193 

> <Gold.Protein.RotatedAtoms>
  -13.8545   18.0307   75.7921 H   0  0  0  0  0  0  0  0  0  0  0  0  # atno 3372 bound_to 414 
   -3.6130   21.6276   74.1796 H   0  0  0  0  0  0  0  0  0  0  0  0  # atno 3515 bound_to 339 
   -2.9994   18.4663   73.1488 H   0  0  0  0  0  0  0  0  0  0  0  0  # atno 3523 bound_to 346 
   -8.8031   25.9819   63.9835 H   0  0  0  0  0  0  0  0  0  0  0  0  # atno 3576 bound_to 185 
   -6.7193   29.2554   65.2128 H   0  0  0  0  0  0  0  0  0  0  0  0  # atno 3663 bound_to 154 
   -1.8807   24.5039   72.6666 H   0  0  0  0  0  0  0  0  0  0  0  0  # atno 3793 bound_to 171 
   -6.6395   24.0127   72.2064 H   0  0  0  0  0  0  0  0  0  0  0  0  # atno 3800 bound_to 178 
  -15.6523    7.3467   77.8765 H   0  0  0  0  0  0  0  0  0  0  0  0  # atno 3973 bound_to 1471
  -20.0243   13.9203   64.0810 H   0  0  0  0  0  0  0  0  0  0  0  0  # atno 4183 bound_to 1244
  -12.6187   16.0951   62.0108 H   0  0  0  0  0  0  0  0  0  0  0  0  # atno 4268 bound_to 1114
  -15.7113   18.6026   58.8648 H   0  0  0  0  0  0  0  0  0  0  0  0  # atno 4280 bound_to 1130
  -12.1707   15.4260   56.9996 H   0  0  0  0  0  0  0  0  0  0  0  0  # atno 4409 bound_to 924 
  -15.0020    8.4012   76.8214 LP  0  0  0  0  0  0  0  0  0  0  0  0  # atno 4696 bound_to 1471
  -15.3777    8.8835   78.3356 LP  0  0  0  0  0  0  0  0  0  0  0  0  # atno 4697 bound_to 1471
  -15.2624   17.9618   74.9791 LP  0  0  0  0  0  0  0  0  0  0  0  0  # atno 4731 bound_to 414 
  -14.9851   16.9433   76.2250 LP  0  0  0  0  0  0  0  0  0  0  0  0  # atno 4732 bound_to 414 
  -13.1281   15.1041   60.8249 LP  0  0  0  0  0  0  0  0  0  0  0  0  # atno 4733 bound_to 1114
  -14.1725   16.1426   61.5300 LP  0  0  0  0  0  0  0  0  0  0  0  0  # atno 4734 bound_to 1114
  -10.9799   15.0850   58.0549 LP  0  0  0  0  0  0  0  0  0  0  0  0  # atno 4763 bound_to 924 
  -10.7078   14.9739   56.4486 LP  0  0  0  0  0  0  0  0  0  0  0  0  # atno 4764 bound_to 924 
  -20.3103   12.8643   62.8764 LP  0  0  0  0  0  0  0  0  0  0  0  0  # atno 4771 bound_to 1244
  -21.0350   12.6688   64.3267 LP  0  0  0  0  0  0  0  0  0  0  0  0  # atno 4772 bound_to 1244
   -6.3083   22.6696   71.3495 LP  0  0  0  0  0  0  0  0  0  0  0  0  # atno 4775 bound_to 178 
   -7.6694   22.7535   72.2478 LP  0  0  0  0  0  0  0  0  0  0  0  0  # atno 4776 bound_to 178 
   -2.6309   23.3763   71.7646 LP  0  0  0  0  0  0  0  0  0  0  0  0  # atno 4779 bound_to 171 
   -3.4555   24.6812   72.2972 LP  0  0  0  0  0  0  0  0  0  0  0  0  # atno 4780 bound_to 171 
   -7.7006   25.1370   63.1359 LP  0  0  0  0  0  0  0  0  0  0  0  0  # atno 4783 bound_to 185 
   -7.4417   26.7134   63.4743 LP  0  0  0  0  0  0  0  0  0  0  0  0  # atno 4784 bound_to 185 
   -3.3585   16.9831   72.5839 LP  0  0  0  0  0  0  0  0  0  0  0  0  # atno 4785 bound_to 346 
   -1.8039   17.4015   72.8572 LP  0  0  0  0  0  0  0  0  0  0  0  0  # atno 4786 bound_to 346 
   -3.1355   20.4645   75.2126 LP  0  0  0  0  0  0  0  0  0  0  0  0  # atno 4787 bound_to 339 
   -2.7165   22.0200   75.4798 LP  0  0  0  0  0  0  0  0  0  0  0  0  # atno 4788 bound_to 339 
   -8.2434   29.7871   65.0066 LP  0  0  0  0  0  0  0  0  0  0  0  0  # atno 4797 bound_to 154 
   -7.9699   28.2549   65.5007 LP  0  0  0  0  0  0  0  0  0  0  0  0  # atno 4798 bound_to 154 

> <Gold.Score>
     Score     S(PLP)   S(hbond)     S(cho)   S(metal)  DE(clash)   DE(tors)     intcor
     35.29     -33.36       0.00       1.00       0.00       0.00       0.53       0.00

> <Gold.PLP.Fitness>
35.2934

> <Gold.PLP.PLP>
-33.3554

> <Gold.PLP.part.hbond>
0.0000

> <Gold.PLP.part.metal>
0.0000

> <Gold.PLP.part.buried>
-5.3561

> <Gold.PLP.part.nonpolar>
-29.0828

> <Gold.PLP.part.repulsive>
0.2866

> <Gold.PLP.ligand.clash>
0.0000

> <Gold.PLP.ligand.torsion>
0.5310

> <Gold.PLP.Chemscore.Hbond>
0.0000

> <Gold.PLP.Chemscore.CHOScore>
1.0000

> <Gold.PLP.Chemscore.Metal>
0.0000

> <Gold.Chemscore.Hbonds>
donor molecule, donor type, donor heavy atom, donor atom, acceptor molecule, acceptor atom, score
      L1  C    10    20       P1  1449  1.00

> <Gold.PLP.Chemscore.Internal.Correction>
0.0000

