#       Name:                unknown
#       Creating user name   williammccorkindale
#       Creation time:       Tue Jun  7 14:55:40 2022


#       File generated by GOLD software.
#

@<TRIPOS>MOLECULE
unknown|prepared_Mpro-x1093|mol2|1|dock3
    41    43     1
SMALL
NO_CHARGES


@<TRIPOS>ATOM
      1 C1         -13.2191  16.0092  73.2976 C.3            1 RES1               0.0000
      2 N2         -12.6310  15.0623  72.4091 N.3            1 RES1               0.0000
      3 C3         -13.5029  14.0381  71.9274 C.3            1 RES1               0.0000
      4 C4         -12.6601  13.0261  71.1797 C.3            1 RES1               0.0000
      5 N5         -12.0045  13.6757  70.0692 N.am           1 RES1               0.0000
      6 C6         -11.9298  15.1179  70.0428 C.3            1 RES1               0.0000
      7 C7         -11.7237  15.6089  71.4547 C.3            1 RES1               0.0000
      8 C8         -11.4568  12.8702  69.0418 C.2            1 RES1               0.0000
      9 O9         -11.5666  11.6256  69.1397 O.2            1 RES1               0.0000
     10 C10        -10.7759  13.4546  67.8852 C.3            1 RES1               0.0000
     11 C11        -11.5812  13.3844  66.6473 C.2            1 RES1               0.0000
     12 C12        -12.7277  14.1002  66.3889 C.2            1 RES1               0.0000
     13 N13        -13.1411  13.7437  65.1686 N.pl3          1 RES1               0.0000
     14 C14        -12.3079  12.8371  64.6467 C.ar           1 RES1               0.0000
     15 N15        -12.2521  12.1565  63.4744 N.ar           1 RES1               0.0000
     16 C16        -11.3037  11.2752  63.1577 C.ar           1 RES1               0.0000
     17 C17        -10.2990  11.0208  64.0680 C.ar           1 RES1               0.0000
     18 C18        -10.2805  11.6717  65.2873 C.ar           1 RES1               0.0000
     19 C19        -11.2898  12.5735  65.5581 C.ar           1 RES1               0.0000
     20 H20        -13.8012  15.5169  74.0996 H              1 RES1               0.0000
     21 H21        -12.3679  16.6138  73.7258 H              1 RES1               0.0000
     22 H22        -13.8545  16.7447  72.7622 H              1 RES1               0.0000
     23 H23        -13.9456  13.5454  72.8392 H              1 RES1               0.0000
     24 H24        -14.3361  14.4196  71.2858 H              1 RES1               0.0000
     25 H25        -13.2524  12.1413  70.8723 H              1 RES1               0.0000
     26 H26        -11.8386  12.7366  71.8934 H              1 RES1               0.0000
     27 H27        -11.0190  15.4558  69.4664 H              1 RES1               0.0000
     28 H28        -12.8262  15.5855  69.6032 H              1 RES1               0.0000
     29 H29        -10.6893  15.2581  71.7500 H              1 RES1               0.0000
     30 H30        -11.6610  16.7200  71.4848 H              1 RES1               0.0000
     31 H31         -9.8085  12.9183  67.7447 H              1 RES1               0.0000
     32 H32        -10.5328  14.5242  68.0846 H              1 RES1               0.0000
     33 H33        -13.2075  14.8269  67.0647 H              1 RES1               0.0000
     34 H34        -13.9846  14.1181  64.7011 H              1 RES1               0.0000
     35 H35        -11.2690  10.7358  62.2203 H              1 RES1               0.0000
     36 H36         -9.5103  10.3152  63.8536 H              1 RES1               0.0000
     37 H37         -9.5365  11.5299  66.0469 H              1 RES1               0.0000
     38 ****       -12.0241  14.5430  73.0108 LP             1 RES1               0.0000
     39 ****       -12.0319  11.2253  69.9291 LP             1 RES1               0.0000
     40 ****       -11.1889  11.0329  68.4283 LP             1 RES1               0.0000
     41 ****       -12.9720  12.3278  62.8018 LP             1 RES1               0.0000
@<TRIPOS>BOND
    1    1    2 1     
    2    2    3 1     
    3    3    4 1     
    4    4    5 1     
    5    5    6 1     
    6    6    7 1     
    7    5    8 am    
    8    8    9 2     
    9    8   10 1     
   10   10   11 1     
   11   11   12 2     
   12   12   13 1     
   13   13   14 1     
   14   14   15 ar    
   15   15   16 ar    
   16   16   17 ar    
   17   17   18 ar    
   18   18   19 ar    
   19    7    2 1     
   20   19   11 1     
   21   19   14 ar    
   22    1   20 1     
   23    1   21 1     
   24    1   22 1     
   25    3   23 1     
   26    3   24 1     
   27    4   25 1     
   28    4   26 1     
   29    6   27 1     
   30    6   28 1     
   31    7   29 1     
   32    7   30 1     
   33   10   31 1     
   34   10   32 1     
   35   12   33 1     
   36   13   34 1     
   37   16   35 1     
   38   17   36 1     
   39   18   37 1     
   40    2   38 1     
   41    9   39 1     
   42    9   40 1     
   43   15   41 1     
@<TRIPOS>SUBSTRUCTURE
      1 RES1           1
@<TRIPOS>SET
LONE_PAIRS      STATIC     ATOMS    <user>   **** ""
4 38 39 40 41
DONOR_HYDROGENS      STATIC     ATOMS    <user>   **** ""
1 34
ATOM$BLUE        STATIC     ATOMS    COLORGROUP SYSTEM
4 38 39 40 41
ATOM$RED        STATIC     ATOMS    COLORGROUP SYSTEM
1 34
@<TRIPOS>COMMENT
> <Gold.Version>
2022.1.0

> <Gold.Id.Protein>
6LU7|6LU7_protein|mol2

> <Gold.Protein.RotatedTorsions>
[ 3973 1471 1470 1467 ] final -143.43 input   60.00 | X-H torsion
[ 3372  414  413  411 ] final -109.54 input   60.00 | X-H torsion
[ 4268 1114 1113 1110 ] final   90.82 input   59.99 | X-H torsion
[ 4409  924  923  921 ] final -105.67 input   59.99 | X-H torsion
[ 4183 1244 1243 1241 ] final    7.46 input   59.99 | X-H torsion
[ 3800  178  177  174 ] final -134.71 input   60.00 | X-H torsion
[ 3793  171  170  167 ] final   16.62 input   60.00 | X-H torsion
[ 3576  185  184  181 ] final -164.96 input   60.00 | X-H torsion
[ 3523  346  345  342 ] final  -73.98 input   60.01 | X-H torsion
[ 3515  339  338  335 ] final -155.24 input   60.00 | X-H torsion
[ 3663  154  153  150 ] final  -69.97 input   60.00 | X-H torsion
[ 4280 1130 1129 1126 ] final -162.77 input   60.00 | X-H torsion

> <Gold.Protein.ActiveResidues>
 VAL20   THR21   CYS22   GLY23   THR24   THR25   THR26   LEU27   ASN28   PRO39  
 ARG40   HIS41   VAL42   CYS44   THR45   SER46   ASP48   MET49   LEU50   PRO52  
 TYR54   TYR118  ASN119  ILE136  GLY138  SER139  PHE140  LEU141  ASN142  GLY143 
 SER144  CYS145  GLY146  SER147  TYR161  HIS163  HIS164  MET165  GLU166  LEU167 
 PRO168  THR169  GLY170  VAL171  HIS172  ALA173  PHE181  PHE185  VAL186  ASP187 
 ARG188  GLN189  THR190  ALA191  GLN192  ALA193 

> <Gold.Protein.RotatedAtoms>
  -15.5473   17.4876   75.3036 H   0  0  0  0  0  0  0  0  0  0  0  0  # atno 3372 bound_to 414 
   -2.6424   21.5605   75.7149 H   0  0  0  0  0  0  0  0  0  0  0  0  # atno 3515 bound_to 339 
   -3.2840   16.9296   72.5730 H   0  0  0  0  0  0  0  0  0  0  0  0  # atno 3523 bound_to 346 
   -7.1608   25.9196   63.0868 H   0  0  0  0  0  0  0  0  0  0  0  0  # atno 3576 bound_to 185 
   -7.4405   28.2301   65.5229 H   0  0  0  0  0  0  0  0  0  0  0  0  # atno 3663 bound_to 154 
   -3.5586   24.3420   72.0596 H   0  0  0  0  0  0  0  0  0  0  0  0  # atno 3793 bound_to 171 
   -7.4785   22.4350   71.9702 H   0  0  0  0  0  0  0  0  0  0  0  0  # atno 3800 bound_to 178 
  -15.4329    8.7764   78.4173 H   0  0  0  0  0  0  0  0  0  0  0  0  # atno 3973 bound_to 1471
  -21.0346   12.6666   64.3140 H   0  0  0  0  0  0  0  0  0  0  0  0  # atno 4183 bound_to 1244
  -14.2110   15.9978   61.3650 H   0  0  0  0  0  0  0  0  0  0  0  0  # atno 4268 bound_to 1114
  -16.0141   18.7074   58.3053 H   0  0  0  0  0  0  0  0  0  0  0  0  # atno 4280 bound_to 1130
  -11.9200   15.3658   57.8274 H   0  0  0  0  0  0  0  0  0  0  0  0  # atno 4409 bound_to 924 
  -15.6195    7.3086   77.7399 LP  0  0  0  0  0  0  0  0  0  0  0  0  # atno 4696 bound_to 1471
  -14.9813    8.5362   76.8725 LP  0  0  0  0  0  0  0  0  0  0  0  0  # atno 4697 bound_to 1471
  -14.3941   17.1329   76.3956 LP  0  0  0  0  0  0  0  0  0  0  0  0  # atno 4731 bound_to 414 
  -14.1486   18.3192   75.3005 LP  0  0  0  0  0  0  0  0  0  0  0  0  # atno 4732 bound_to 414 
  -12.7758   16.2280   62.0965 LP  0  0  0  0  0  0  0  0  0  0  0  0  # atno 4733 bound_to 1114
  -12.9212   15.1167   60.9088 LP  0  0  0  0  0  0  0  0  0  0  0  0  # atno 4734 bound_to 1114
  -10.4157   14.9037   57.4136 LP  0  0  0  0  0  0  0  0  0  0  0  0  # atno 4763 bound_to 924 
  -11.5245   15.2159   56.2561 LP  0  0  0  0  0  0  0  0  0  0  0  0  # atno 4764 bound_to 924 
  -20.0243   13.9230   64.0936 LP  0  0  0  0  0  0  0  0  0  0  0  0  # atno 4771 bound_to 1244
  -20.3036   12.8727   62.8749 LP  0  0  0  0  0  0  0  0  0  0  0  0  # atno 4772 bound_to 1244
   -7.0410   23.9351   72.4248 LP  0  0  0  0  0  0  0  0  0  0  0  0  # atno 4775 bound_to 178 
   -6.0918   23.0767   71.4104 LP  0  0  0  0  0  0  0  0  0  0  0  0  # atno 4776 bound_to 178 
   -2.1667   24.8056   72.7635 LP  0  0  0  0  0  0  0  0  0  0  0  0  # atno 4779 bound_to 171 
   -2.2297   23.4150   71.9098 LP  0  0  0  0  0  0  0  0  0  0  0  0  # atno 4780 bound_to 171 
   -8.2798   26.7452   63.9319 LP  0  0  0  0  0  0  0  0  0  0  0  0  # atno 4783 bound_to 185 
   -8.5166   25.1680   63.5814 LP  0  0  0  0  0  0  0  0  0  0  0  0  # atno 4784 bound_to 185 
   -1.7881   17.4868   72.8891 LP  0  0  0  0  0  0  0  0  0  0  0  0  # atno 4785 bound_to 346 
   -3.0877   18.4453   73.1318 LP  0  0  0  0  0  0  0  0  0  0  0  0  # atno 4786 bound_to 346 
   -3.4146   22.0682   74.3756 LP  0  0  0  0  0  0  0  0  0  0  0  0  # atno 4787 bound_to 339 
   -3.4149   20.4838   74.7706 LP  0  0  0  0  0  0  0  0  0  0  0  0  # atno 4788 bound_to 339 
   -6.9464   29.7100   65.0605 LP  0  0  0  0  0  0  0  0  0  0  0  0  # atno 4797 bound_to 154 
   -8.5407   29.3645   65.1345 LP  0  0  0  0  0  0  0  0  0  0  0  0  # atno 4798 bound_to 154 

> <Gold.Score>
     Score     S(PLP)   S(hbond)     S(cho)   S(metal)  DE(clash)   DE(tors)     intcor
     56.34     -46.17       0.96       2.60       0.00       0.00       0.25       0.00

> <Gold.PLP.Fitness>
56.3398

> <Gold.PLP.PLP>
-46.1674

> <Gold.PLP.part.hbond>
-1.0000

> <Gold.PLP.part.metal>
0.0000

> <Gold.PLP.part.buried>
-6.0790

> <Gold.PLP.part.nonpolar>
-40.1511

> <Gold.PLP.part.repulsive>
0.6076

> <Gold.PLP.ligand.clash>
0.0000

> <Gold.PLP.ligand.torsion>
0.2491

> <Gold.PLP.Chemscore.Hbond>
0.9600

> <Gold.PLP.Chemscore.CHOScore>
2.5967

> <Gold.PLP.Chemscore.Metal>
0.0000

> <Gold.Chemscore.Hbonds>
donor molecule, donor type, donor heavy atom, donor atom, acceptor molecule, acceptor atom, score
      L1  H    13    34       P1  1262  0.96
      L1  C    12    33       P1  1266  1.00
      L1  C    16    35       P1  1289  0.64
      L1  C    16    35       P1  1081  0.96

> <Gold.PLP.Chemscore.Internal.Correction>
0.0004

