unknown|prepared_Mpro-x0387|sdf|1|dock5
  -GOLD-   5 72214353D 1   1.00000     0.00000

 28 29  0  0  0  0  0  0  0  0  1 V2000
  -10.5140   14.5607   65.2868 O   0  0  0  0  0  0  0  0  0  0  0  0
  -11.1562   15.1588   66.3736 C   0  0  0  0  0  0  0  0  0  0  0  0
  -11.8765   14.1619   67.2406 C   0  0  0  0  0  0  0  0  0  0  0  0
  -11.7016   14.3997   68.7085 C   0  0  0  0  0  0  0  0  0  0  0  0
  -11.6963   15.7635   69.1085 N   0  0  0  0  0  0  0  0  0  0  0  0
  -11.1727   15.8800   70.4548 C   0  0  0  0  0  0  0  0  0  0  0  0
  -12.2688   15.6142   71.4770 C   0  0  0  0  0  0  0  0  0  0  0  0
  -12.1347   15.8258   72.7884 C   0  0  0  0  0  0  0  0  0  0  0  0
  -13.2005   15.5445   73.5993 C   0  0  0  0  0  0  0  0  0  0  0  0
  -14.3700   14.9867   72.4914 S   0  0  0  0  0  0  0  0  0  0  0  0
  -13.4796   15.1262   71.0468 C   0  0  0  0  0  0  0  0  0  0  0  0
  -10.9644   16.6505   68.2668 C   0  0  0  0  0  0  0  0  0  0  0  0
  -10.1356   15.8617   67.2709 C   0  0  0  0  0  0  0  0  0  0  0  0
  -10.0643   13.7376   65.6064 H   0  0  0  0  0  0  0  0  0  0  0  0
  -11.8781   15.9114   66.0231 H   0  0  0  0  0  0  0  0  0  0  0  0
  -12.9648   14.0892   66.9763 H   0  0  0  0  0  0  0  0  0  0  0  0
  -11.4450   13.1660   67.0014 H   0  0  0  0  0  0  0  0  0  0  0  0
  -10.7098   13.9586   68.9926 H   0  0  0  0  0  0  0  0  0  0  0  0
  -12.5330   13.8823   69.2323 H   0  0  0  0  0  0  0  0  0  0  0  0
  -10.7867   16.9182   70.5935 H   0  0  0  0  0  0  0  0  0  0  0  0
  -10.3227   15.2008   70.6317 H   0  0  0  0  0  0  0  0  0  0  0  0
  -11.1923   16.2194   73.2337 H   0  0  0  0  0  0  0  0  0  0  0  0
  -13.2577   15.6607   74.6978 H   0  0  0  0  0  0  0  0  0  0  0  0
  -13.8244   14.8768   70.0389 H   0  0  0  0  0  0  0  0  0  0  0  0
  -10.2566   17.3116   68.8274 H   0  0  0  0  0  0  0  0  0  0  0  0
  -11.6399   17.3016   67.6494 H   0  0  0  0  0  0  0  0  0  0  0  0
   -9.5344   15.0701   67.7474 H   0  0  0  0  0  0  0  0  0  0  0  0
   -9.5144   16.5345   66.6426 H   0  0  0  0  0  0  0  0  0  0  0  0
  1  2  1  0  0  0  0
  2  3  1  0  0  0  0
  3  4  1  0  0  0  0
  4  5  1  0  0  0  0
  5  6  1  0  0  0  0
  6  7  1  0  0  0  0
  7  8  1  0  0  0  0
  8  9  2  0  0  0  0
  9 10  1  0  0  0  0
 10 11  1  0  0  0  0
  5 12  1  0  0  0  0
 12 13  1  0  0  0  0
 13  2  1  0  0  0  0
  7 11  2  0  0  0  0
  1 14  1  0  0  0  0
  2 15  1  0  0  0  0
  3 16  1  0  0  0  0
  3 17  1  0  0  0  0
  4 18  1  0  0  0  0
  4 19  1  0  0  0  0
  6 20  1  0  0  0  0
  6 21  1  0  0  0  0
  8 22  1  0  0  0  0
  9 23  1  0  0  0  0
 11 24  1  0  0  0  0
 12 25  1  0  0  0  0
 12 26  1  0  0  0  0
 13 27  1  0  0  0  0
 13 28  1  0  0  0  0
M  END
> <Gold.Version>
2022.1.0

> <Gold.Id.Protein>
6LU7|6LU7_protein|mol2

> <Gold.PLP.Fitness>
40.1860

> <Gold.PLP.PLP>
-35.7781

> <Gold.PLP.part.hbond>
0.0000

> <Gold.PLP.part.metal>
0.0000

> <Gold.PLP.part.buried>
-4.6397

> <Gold.PLP.part.nonpolar>
-31.3129

> <Gold.PLP.part.repulsive>
0.1620

> <Gold.PLP.ligand.clash>
0.0000

> <Gold.PLP.ligand.torsion>
0.4030

> <Gold.PLP.Chemscore.Hbond>
0.0000

> <Gold.PLP.Chemscore.CHOScore>
1.7331

> <Gold.PLP.Chemscore.Metal>
0.0000

> <Gold.Chemscore.Hbonds>
donor molecule, donor type, donor heavy atom, donor atom, acceptor molecule, acceptor atom, score
      L1  C     9    23       P1  1441  0.73
      L1  C    11    24       P1  1266  1.00

> <Gold.PLP.Chemscore.Internal.Correction>
0.0144

> <Gold.Protein.RotatedTorsions>
[ 3973 1471 1470 1467 ] final  -25.54 input   60.00 | X-H torsion
[ 3372  414  413  411 ] final  158.51 input   60.00 | X-H torsion
[ 4268 1114 1113 1110 ] final   49.91 input   59.99 | X-H torsion
[ 4409  924  923  921 ] final  128.44 input   59.99 | X-H torsion
[ 4183 1244 1243 1241 ] final  -68.86 input   59.99 | X-H torsion
[ 3800  178  177  174 ] final    6.78 input   60.00 | X-H torsion
[ 3793  171  170  167 ] final -144.70 input   60.00 | X-H torsion
[ 3576  185  184  181 ] final  -25.27 input   60.00 | X-H torsion
[ 3523  346  345  342 ] final  178.81 input   60.01 | X-H torsion
[ 3515  339  338  335 ] final  -98.48 input   60.00 | X-H torsion
[ 3663  154  153  150 ] final -160.83 input   60.00 | X-H torsion
[ 4280 1130 1129 1126 ] final  -16.75 input   60.00 | X-H torsion

> <Gold.Protein.ActiveResidues>
 VAL20   THR21   CYS22   GLY23   THR24   THR25   THR26   LEU27   ASN28   PRO39  
 ARG40   HIS41   VAL42   CYS44   THR45   SER46   ASP48   MET49   LEU50   PRO52  
 TYR54   TYR118  ASN119  ILE136  GLY138  SER139  PHE140  LEU141  ASN142  GLY143 
 SER144  CYS145  GLY146  SER147  TYR161  HIS163  HIS164  MET165  GLU166  LEU167 
 PRO168  THR169  GLY170  VAL171  HIS172  ALA173  PHE181  PHE185  VAL186  ASP187 
 ARG188  GLN189  THR190  ALA191  GLN192  ALA193 

> <Gold.Protein.RotatedAtoms>
  -14.8110   16.9730   76.3065 H   0  0  0  0  0  0  0  0  0  0  0  0  # atno 3372 bound_to 414 
   -2.8753   20.7153   75.5616 H   0  0  0  0  0  0  0  0  0  0  0  0  # atno 3515 bound_to 339 
   -1.8432   17.2973   72.8191 H   0  0  0  0  0  0  0  0  0  0  0  0  # atno 3523 bound_to 346 
   -8.6979   25.3772   63.7443 H   0  0  0  0  0  0  0  0  0  0  0  0  # atno 3576 bound_to 185 
   -6.7312   29.3111   65.1948 H   0  0  0  0  0  0  0  0  0  0  0  0  # atno 3663 bound_to 154 
   -1.7845   24.2988   72.5728 H   0  0  0  0  0  0  0  0  0  0  0  0  # atno 3793 bound_to 171 
   -6.0596   23.3993   71.5436 H   0  0  0  0  0  0  0  0  0  0  0  0  # atno 3800 bound_to 178 
  -14.9781    8.5642   76.8938 H   0  0  0  0  0  0  0  0  0  0  0  0  # atno 3973 bound_to 1471
  -20.4379   13.6236   64.5712 H   0  0  0  0  0  0  0  0  0  0  0  0  # atno 4183 bound_to 1244
  -13.9350   16.3624   61.8330 H   0  0  0  0  0  0  0  0  0  0  0  0  # atno 4268 bound_to 1114
  -16.1988   20.4072   58.8369 H   0  0  0  0  0  0  0  0  0  0  0  0  # atno 4280 bound_to 1130
  -10.4022   14.9002   57.3179 H   0  0  0  0  0  0  0  0  0  0  0  0  # atno 4409 bound_to 924 
  -15.4491    8.7545   78.4397 LP  0  0  0  0  0  0  0  0  0  0  0  0  # atno 4696 bound_to 1471
  -15.6096    7.3040   77.7069 LP  0  0  0  0  0  0  0  0  0  0  0  0  # atno 4697 bound_to 1471
  -13.8987   18.1446   75.6408 LP  0  0  0  0  0  0  0  0  0  0  0  0  # atno 4731 bound_to 414 
  -15.3854   17.8258   75.0452 LP  0  0  0  0  0  0  0  0  0  0  0  0  # atno 4732 bound_to 414 
  -12.4147   15.7857   61.7675 LP  0  0  0  0  0  0  0  0  0  0  0  0  # atno 4733 bound_to 1114
  -13.5602   15.1919   60.7665 LP  0  0  0  0  0  0  0  0  0  0  0  0  # atno 4734 bound_to 1114
  -11.6126   15.2429   56.2857 LP  0  0  0  0  0  0  0  0  0  0  0  0  # atno 4763 bound_to 924 
  -11.8562   15.3455   57.8972 LP  0  0  0  0  0  0  0  0  0  0  0  0  # atno 4764 bound_to 924 
  -19.9417   13.4531   63.0309 LP  0  0  0  0  0  0  0  0  0  0  0  0  # atno 4771 bound_to 1244
  -20.9871   12.3788   63.6786 LP  0  0  0  0  0  0  0  0  0  0  0  0  # atno 4772 bound_to 1244
   -7.2385   22.2975   71.7552 LP  0  0  0  0  0  0  0  0  0  0  0  0  # atno 4775 bound_to 178 
   -7.3232   23.7433   72.5096 LP  0  0  0  0  0  0  0  0  0  0  0  0  # atno 4776 bound_to 178 
   -2.8686   23.4305   71.7250 LP  0  0  0  0  0  0  0  0  0  0  0  0  # atno 4779 bound_to 171 
   -3.3148   24.8336   72.4314 LP  0  0  0  0  0  0  0  0  0  0  0  0  # atno 4780 bound_to 171 
   -7.2504   25.6148   63.0398 LP  0  0  0  0  0  0  0  0  0  0  0  0  # atno 4783 bound_to 185 
   -7.9979   26.8447   63.8113 LP  0  0  0  0  0  0  0  0  0  0  0  0  # atno 4784 bound_to 185 
   -2.8870   18.4965   73.1661 LP  0  0  0  0  0  0  0  0  0  0  0  0  # atno 4785 bound_to 346 
   -3.4398   17.0653   72.6071 LP  0  0  0  0  0  0  0  0  0  0  0  0  # atno 4786 bound_to 346 
   -2.9217   22.2737   75.0954 LP  0  0  0  0  0  0  0  0  0  0  0  0  # atno 4787 bound_to 339 
   -3.6733   21.1295   74.2052 LP  0  0  0  0  0  0  0  0  0  0  0  0  # atno 4788 bound_to 339 
   -8.2884   29.7489   65.0178 LP  0  0  0  0  0  0  0  0  0  0  0  0  # atno 4797 bound_to 154 
   -7.9129   28.2371   65.5077 LP  0  0  0  0  0  0  0  0  0  0  0  0  # atno 4798 bound_to 154 

$$$$
