unknown|prepared_Mpro-x0354|sdf|1|dock5
  -GOLD-   5 72214353D 1   1.00000     0.00000

 38 39  0  0  0  0  0  0  0  0  1 V2000
  -12.4316   15.0003   73.7692 C   0  0  0  0  0  0  0  0  0  0  0  0
  -12.8475   15.6458   72.5393 N   0  0  0  0  0  0  0  0  0  0  0  0
  -13.6566   14.7453   71.7913 C   0  0  0  0  0  0  0  0  0  0  0  0
  -12.7226   13.7564   71.0815 C   0  0  0  0  0  0  0  0  0  0  0  0
  -12.0477   14.5292   70.0621 N   0  0  0  0  0  0  0  0  0  0  0  0
  -11.6924   15.8941   70.3780 C   0  0  0  0  0  0  0  0  0  0  0  0
  -11.7354   16.1928   71.8413 C   0  0  0  0  0  0  0  0  0  0  0  0
  -11.7627   13.9387   68.8156 C   0  0  0  0  0  0  0  0  0  0  0  0
  -11.1703   14.6486   67.9491 O   0  0  0  0  0  0  0  0  0  0  0  0
  -12.1532   12.5421   68.5604 C   0  0  0  0  0  0  0  0  0  0  0  0
  -11.0147   11.7905   68.2387 O   0  0  0  0  0  0  0  0  0  0  0  0
  -10.6824   11.5761   66.9143 C   0  0  0  0  0  0  0  0  0  0  0  0
  -11.4483   12.0839   65.8912 C   0  0  0  0  0  0  0  0  0  0  0  0
  -11.1000   11.8547   64.5595 C   0  0  0  0  0  0  0  0  0  0  0  0
   -9.9926   11.1233   64.2199 C   0  0  0  0  0  0  0  0  0  0  0  0
   -9.6109   10.8723   62.8079 C   0  0  0  0  0  0  0  0  0  0  0  0
   -9.2405   10.6256   65.2590 C   0  0  0  0  0  0  0  0  0  0  0  0
   -9.5539   10.8312   66.5759 C   0  0  0  0  0  0  0  0  0  0  0  0
  -12.8986   13.9995   73.8996 H   0  0  0  0  0  0  0  0  0  0  0  0
  -12.7500   15.5899   74.6710 H   0  0  0  0  0  0  0  0  0  0  0  0
  -11.3358   14.8281   73.7747 H   0  0  0  0  0  0  0  0  0  0  0  0
  -14.2137   15.2560   70.9637 H   0  0  0  0  0  0  0  0  0  0  0  0
  -14.3610   14.2245   72.4553 H   0  0  0  0  0  0  0  0  0  0  0  0
  -13.2924   12.9039   70.6788 H   0  0  0  0  0  0  0  0  0  0  0  0
  -11.9240   13.4217   71.8056 H   0  0  0  0  0  0  0  0  0  0  0  0
  -12.2647   16.6415   69.8243 H   0  0  0  0  0  0  0  0  0  0  0  0
  -10.6155   16.0101   70.0561 H   0  0  0  0  0  0  0  0  0  0  0  0
  -10.7706   15.8704   72.3173 H   0  0  0  0  0  0  0  0  0  0  0  0
  -11.7553   17.3022   71.9669 H   0  0  0  0  0  0  0  0  0  0  0  0
  -12.6045   12.1051   69.4796 H   0  0  0  0  0  0  0  0  0  0  0  0
  -12.9385   12.4531   67.7796 H   0  0  0  0  0  0  0  0  0  0  0  0
  -12.3459   12.6973   66.0474 H   0  0  0  0  0  0  0  0  0  0  0  0
  -11.7153   12.2619   63.7457 H   0  0  0  0  0  0  0  0  0  0  0  0
  -10.4633   11.0261   62.1220 H   0  0  0  0  0  0  0  0  0  0  0  0
   -9.1248    9.8831   62.6728 H   0  0  0  0  0  0  0  0  0  0  0  0
   -8.8334   11.6329   62.5074 H   0  0  0  0  0  0  0  0  0  0  0  0
   -8.3517   10.0390   64.9964 H   0  0  0  0  0  0  0  0  0  0  0  0
   -8.9804   10.4518   67.4024 H   0  0  0  0  0  0  0  0  0  0  0  0
  1  2  1  0  0  0  0
  2  3  1  0  0  0  0
  3  4  1  0  0  0  0
  4  5  1  0  0  0  0
  5  6  1  0  0  0  0
  6  7  1  0  0  0  0
  5  8  1  0  0  0  0
  8  9  2  0  0  0  0
  8 10  1  0  0  0  0
 10 11  1  0  0  0  0
 11 12  1  0  0  0  0
 12 13  2  0  0  0  0
 13 14  1  0  0  0  0
 14 15  2  0  0  0  0
 15 16  1  0  0  0  0
 15 17  1  0  0  0  0
 17 18  2  0  0  0  0
  7  2  1  0  0  0  0
 12 18  1  0  0  0  0
  1 19  1  0  0  0  0
  1 20  1  0  0  0  0
  1 21  1  0  0  0  0
  3 22  1  0  0  0  0
  3 23  1  0  0  0  0
  4 24  1  0  0  0  0
  4 25  1  0  0  0  0
  6 26  1  0  0  0  0
  6 27  1  0  0  0  0
  7 28  1  0  0  0  0
  7 29  1  0  0  0  0
 10 30  1  0  0  0  0
 10 31  1  0  0  0  0
 13 32  1  0  0  0  0
 14 33  1  0  0  0  0
 16 34  1  0  0  0  0
 16 35  1  0  0  0  0
 16 36  1  0  0  0  0
 17 37  1  0  0  0  0
 18 38  1  0  0  0  0
M  END
> <Gold.Version>
2022.1.0

> <Gold.Id.Protein>
6LU7|6LU7_protein|mol2

> <Gold.PLP.Fitness>
44.3151

> <Gold.PLP.PLP>
-44.7976

> <Gold.PLP.part.hbond>
0.0000

> <Gold.PLP.part.metal>
0.0000

> <Gold.PLP.part.buried>
-8.2785

> <Gold.PLP.part.nonpolar>
-37.8669

> <Gold.PLP.part.repulsive>
0.2092

> <Gold.PLP.ligand.clash>
0.0000

> <Gold.PLP.ligand.torsion>
0.2468

> <Gold.PLP.Chemscore.Hbond>
0.0000

> <Gold.PLP.Chemscore.CHOScore>
0.0000

> <Gold.PLP.Chemscore.Metal>
0.0000

> <Gold.PLP.Chemscore.Internal.Correction>
0.0110

> <Gold.Protein.RotatedTorsions>
[ 3973 1471 1470 1467 ] final  -36.82 input   60.00 | X-H torsion
[ 3372  414  413  411 ] final -131.15 input   60.00 | X-H torsion
[ 4268 1114 1113 1110 ] final  174.71 input   59.99 | X-H torsion
[ 4409  924  923  921 ] final   12.95 input   59.99 | X-H torsion
[ 4183 1244 1243 1241 ] final  124.47 input   59.99 | X-H torsion
[ 3800  178  177  174 ] final   38.26 input   60.00 | X-H torsion
[ 3793  171  170  167 ] final  -27.23 input   60.00 | X-H torsion
[ 3576  185  184  181 ] final -141.71 input   60.00 | X-H torsion
[ 3523  346  345  342 ] final   84.14 input   60.01 | X-H torsion
[ 3515  339  338  335 ] final   28.39 input   60.00 | X-H torsion
[ 3663  154  153  150 ] final  -49.06 input   60.00 | X-H torsion
[ 4280 1130 1129 1126 ] final -141.26 input   60.00 | X-H torsion

> <Gold.Protein.ActiveResidues>
 VAL20   THR21   CYS22   GLY23   THR24   THR25   THR26   LEU27   ASN28   PRO39  
 ARG40   HIS41   VAL42   CYS44   THR45   SER46   ASP48   MET49   LEU50   PRO52  
 TYR54   TYR118  ASN119  ILE136  GLY138  SER139  PHE140  LEU141  ASN142  GLY143 
 SER144  CYS145  GLY146  SER147  TYR161  HIS163  HIS164  MET165  GLU166  LEU167 
 PRO168  THR169  GLY170  VAL171  HIS172  ALA173  PHE181  PHE185  VAL186  ASP187 
 ARG188  GLN189  THR190  ALA191  GLN192  ALA193 

> <Gold.Protein.RotatedAtoms>
  -15.5396   17.2483   75.5603 H   0  0  0  0  0  0  0  0  0  0  0  0  # atno 3372 bound_to 414 
   -3.6714   21.2403   74.1849 H   0  0  0  0  0  0  0  0  0  0  0  0  # atno 3515 bound_to 339 
   -2.4769   18.4624   73.1886 H   0  0  0  0  0  0  0  0  0  0  0  0  # atno 3523 bound_to 346 
   -7.2812   25.5647   63.0438 H   0  0  0  0  0  0  0  0  0  0  0  0  # atno 3576 bound_to 185 
   -7.7801   28.2167   65.5195 H   0  0  0  0  0  0  0  0  0  0  0  0  # atno 3663 bound_to 154 
   -3.2812   24.8515   72.4497 H   0  0  0  0  0  0  0  0  0  0  0  0  # atno 3793 bound_to 171 
   -6.2047   23.7952   71.8270 H   0  0  0  0  0  0  0  0  0  0  0  0  # atno 3800 bound_to 178 
  -14.9672    8.7199   76.9911 H   0  0  0  0  0  0  0  0  0  0  0  0  # atno 3973 bound_to 1471
  -20.3369   12.8387   62.8883 H   0  0  0  0  0  0  0  0  0  0  0  0  # atno 4183 bound_to 1244
  -13.4838   15.1719   60.7688 H   0  0  0  0  0  0  0  0  0  0  0  0  # atno 4268 bound_to 1114
  -16.1781   18.9283   58.0899 H   0  0  0  0  0  0  0  0  0  0  0  0  # atno 4280 bound_to 1130
  -11.5429   15.2240   56.2686 H   0  0  0  0  0  0  0  0  0  0  0  0  # atno 4409 bound_to 924 
  -15.5184    8.6014   78.5175 LP  0  0  0  0  0  0  0  0  0  0  0  0  # atno 4696 bound_to 1471
  -15.5513    7.3004   77.5312 LP  0  0  0  0  0  0  0  0  0  0  0  0  # atno 4697 bound_to 1471
  -14.1170   17.3464   76.3444 LP  0  0  0  0  0  0  0  0  0  0  0  0  # atno 4731 bound_to 414 
  -14.4335   18.3467   75.0931 LP  0  0  0  0  0  0  0  0  0  0  0  0  # atno 4732 bound_to 414 
  -13.9931   16.3341   61.7876 LP  0  0  0  0  0  0  0  0  0  0  0  0  # atno 4733 bound_to 1114
  -12.4362   15.8424   61.8181 LP  0  0  0  0  0  0  0  0  0  0  0  0  # atno 4734 bound_to 1114
  -11.9096   15.3607   57.8481 LP  0  0  0  0  0  0  0  0  0  0  0  0  # atno 4763 bound_to 924 
  -10.4104   14.9017   57.3917 LP  0  0  0  0  0  0  0  0  0  0  0  0  # atno 4764 bound_to 924 
  -21.0277   12.6941   64.3545 LP  0  0  0  0  0  0  0  0  0  0  0  0  # atno 4771 bound_to 1244
  -20.0028   13.9283   64.0498 LP  0  0  0  0  0  0  0  0  0  0  0  0  # atno 4772 bound_to 1244
   -6.8014   22.3191   71.4902 LP  0  0  0  0  0  0  0  0  0  0  0  0  # atno 4775 bound_to 178 
   -7.6142   23.3230   72.4892 LP  0  0  0  0  0  0  0  0  0  0  0  0  # atno 4776 bound_to 178 
   -1.7683   24.2624   72.5586 LP  0  0  0  0  0  0  0  0  0  0  0  0  # atno 4779 bound_to 171 
   -2.9076   23.4450   71.7218 LP  0  0  0  0  0  0  0  0  0  0  0  0  # atno 4780 bound_to 171 
   -7.9457   26.8516   63.7855 LP  0  0  0  0  0  0  0  0  0  0  0  0  # atno 4783 bound_to 185 
   -8.7295   25.4191   63.7712 LP  0  0  0  0  0  0  0  0  0  0  0  0  # atno 4784 bound_to 185 
   -3.6302   17.4152   72.7181 LP  0  0  0  0  0  0  0  0  0  0  0  0  # atno 4785 bound_to 346 
   -2.0585   16.9733   72.6829 LP  0  0  0  0  0  0  0  0  0  0  0  0  # atno 4786 bound_to 346 
   -2.9252   20.6361   75.4988 LP  0  0  0  0  0  0  0  0  0  0  0  0  # atno 4787 bound_to 339 
   -2.8680   22.2383   75.1883 LP  0  0  0  0  0  0  0  0  0  0  0  0  # atno 4788 bound_to 339 
   -6.7652   29.4346   65.1523 LP  0  0  0  0  0  0  0  0  0  0  0  0  # atno 4797 bound_to 154 
   -8.3799   29.6534   65.0461 LP  0  0  0  0  0  0  0  0  0  0  0  0  # atno 4798 bound_to 154 

$$$$
