unknown|prepared_Mpro-x1249|sdf|1|dock3
  -GOLD-   5 72214353D 1   1.00000     0.00000

 33 34  0  0  0  0  0  0  0  0  1 V2000
  -10.3682   16.0456   69.8482 O   0  0  0  0  0  0  0  0  0  0  0  0
  -11.5524   15.5797   69.8542 C   0  0  0  0  0  0  0  0  0  0  0  0
  -12.1936   15.4653   68.6081 N   0  0  0  0  0  0  0  0  0  0  0  0
  -11.6052   15.8451   67.3398 C   0  0  0  0  0  0  0  0  0  0  0  0
  -11.2609   14.6971   66.4778 C   0  0  0  0  0  0  0  0  0  0  0  0
  -12.0021   14.5040   65.3070 C   0  0  0  0  0  0  0  0  0  0  0  0
  -11.7288   13.4480   64.4578 C   0  0  0  0  0  0  0  0  0  0  0  0
  -10.6986   12.5448   64.7523 C   0  0  0  0  0  0  0  0  0  0  0  0
  -10.4258   11.4509   63.8455 C   0  0  0  0  0  0  0  0  0  0  0  0
  -10.2012   10.5909   63.1080 N   0  0  0  0  0  0  0  0  0  0  0  0
   -9.9640   12.7279   65.9031 C   0  0  0  0  0  0  0  0  0  0  0  0
  -10.2579   13.7987   66.7441 C   0  0  0  0  0  0  0  0  0  0  0  0
  -12.0942   15.2279   71.1160 N   0  0  0  0  0  0  0  0  0  0  0  0
  -13.4176   14.6407   71.1607 C   0  0  0  0  0  0  0  0  0  0  0  0
  -14.1707   15.0902   72.3941 C   0  0  0  0  0  0  0  0  0  0  0  0
  -13.3939   14.9151   73.5419 O   0  0  0  0  0  0  0  0  0  0  0  0
  -12.3626   15.8666   73.4334 C   0  0  0  0  0  0  0  0  0  0  0  0
  -11.4161   15.4102   72.3632 C   0  0  0  0  0  0  0  0  0  0  0  0
  -13.1690   15.0716   68.6147 H   0  0  0  0  0  0  0  0  0  0  0  0
  -12.2796   16.5323   66.7512 H   0  0  0  0  0  0  0  0  0  0  0  0
  -10.6902   16.4175   67.5258 H   0  0  0  0  0  0  0  0  0  0  0  0
  -12.7931   15.2064   65.0950 H   0  0  0  0  0  0  0  0  0  0  0  0
  -12.2796   13.2764   63.5548 H   0  0  0  0  0  0  0  0  0  0  0  0
   -9.1541   12.0233   66.1457 H   0  0  0  0  0  0  0  0  0  0  0  0
   -9.6729   13.9199   67.6449 H   0  0  0  0  0  0  0  0  0  0  0  0
  -14.0387   14.9719   70.2801 H   0  0  0  0  0  0  0  0  0  0  0  0
  -13.3582   13.5391   71.0564 H   0  0  0  0  0  0  0  0  0  0  0  0
  -14.3813   16.1676   72.2870 H   0  0  0  0  0  0  0  0  0  0  0  0
  -15.1108   14.5463   72.4462 H   0  0  0  0  0  0  0  0  0  0  0  0
  -11.8234   15.8962   74.4256 H   0  0  0  0  0  0  0  0  0  0  0  0
  -12.7679   16.8739   73.2162 H   0  0  0  0  0  0  0  0  0  0  0  0
  -10.5610   16.1108   72.3109 H   0  0  0  0  0  0  0  0  0  0  0  0
  -10.9910   14.4246   72.6787 H   0  0  0  0  0  0  0  0  0  0  0  0
  1  2  2  0  0  0  0
  2  3  1  0  0  0  0
  3  4  1  0  0  0  0
  4  5  1  0  0  0  0
  5  6  2  0  0  0  0
  6  7  1  0  0  0  0
  7  8  2  0  0  0  0
  8  9  1  0  0  0  0
  9 10  3  0  0  0  0
  8 11  1  0  0  0  0
 11 12  2  0  0  0  0
  2 13  1  0  0  0  0
 13 14  1  0  0  0  0
 14 15  1  0  0  0  0
 15 16  1  0  0  0  0
 16 17  1  0  0  0  0
 17 18  1  0  0  0  0
  5 12  1  0  0  0  0
 18 13  1  0  0  0  0
  3 19  1  0  0  0  0
  4 20  1  0  0  0  0
  4 21  1  0  0  0  0
  6 22  1  0  0  0  0
  7 23  1  0  0  0  0
 11 24  1  0  0  0  0
 12 25  1  0  0  0  0
 14 26  1  0  0  0  0
 14 27  1  0  0  0  0
 15 28  1  0  0  0  0
 15 29  1  0  0  0  0
 17 30  1  0  0  0  0
 17 31  1  0  0  0  0
 18 32  1  0  0  0  0
 18 33  1  0  0  0  0
M  END
> <Gold.Version>
2022.1.0

> <Gold.Id.Protein>
6LU7|6LU7_protein|mol2

> <Gold.PLP.Fitness>
46.6164

> <Gold.PLP.PLP>
-44.0036

> <Gold.PLP.part.hbond>
-1.3924

> <Gold.PLP.part.metal>
0.0000

> <Gold.PLP.part.buried>
-7.5061

> <Gold.PLP.part.nonpolar>
-36.1453

> <Gold.PLP.part.repulsive>
0.5641

> <Gold.PLP.ligand.clash>
0.0000

> <Gold.PLP.ligand.torsion>
0.1339

> <Gold.PLP.Chemscore.Hbond>
0.9600

> <Gold.PLP.Chemscore.CHOScore>
0.0000

> <Gold.PLP.Chemscore.Metal>
0.0000

> <Gold.Chemscore.Hbonds>
donor molecule, donor type, donor heavy atom, donor atom, acceptor molecule, acceptor atom, score
      L1  H     3    19       P1  1266  0.96

> <Gold.PLP.Chemscore.Internal.Correction>
0.0004

> <Gold.Protein.RotatedTorsions>
[ 3973 1471 1470 1467 ] final  -11.91 input   60.00 | X-H torsion
[ 3372  414  413  411 ] final   23.34 input   60.00 | X-H torsion
[ 4268 1114 1113 1110 ] final  -90.32 input   59.99 | X-H torsion
[ 4409  924  923  921 ] final  -66.66 input   59.99 | X-H torsion
[ 4183 1244 1243 1241 ] final  -12.47 input   59.99 | X-H torsion
[ 3800  178  177  174 ] final  -15.62 input   60.00 | X-H torsion
[ 3793  171  170  167 ] final -100.60 input   60.00 | X-H torsion
[ 3576  185  184  181 ] final  114.60 input   60.00 | X-H torsion
[ 3523  346  345  342 ] final   52.64 input   60.01 | X-H torsion
[ 3515  339  338  335 ] final -120.76 input   60.00 | X-H torsion
[ 3663  154  153  150 ] final -117.25 input   60.00 | X-H torsion
[ 4280 1130 1129 1126 ] final  134.20 input   60.00 | X-H torsion

> <Gold.Protein.ActiveResidues>
 VAL20   THR21   CYS22   GLY23   THR24   THR25   THR26   LEU27   ASN28   PRO39  
 ARG40   HIS41   VAL42   CYS44   THR45   SER46   ASP48   MET49   LEU50   PRO52  
 TYR54   TYR118  ASN119  ILE136  GLY138  SER139  PHE140  LEU141  ASN142  GLY143 
 SER144  CYS145  GLY146  SER147  TYR161  HIS163  HIS164  MET165  GLU166  LEU167 
 PRO168  THR169  GLY170  VAL171  HIS172  ALA173  PHE181  PHE185  VAL186  ASP187 
 ARG188  GLN189  THR190  ALA191  GLN192  ALA193 

> <Gold.Protein.RotatedAtoms>
  -14.0191   18.2543   75.4537 H   0  0  0  0  0  0  0  0  0  0  0  0  # atno 3372 bound_to 414 
   -2.7330   21.0131   75.7099 H   0  0  0  0  0  0  0  0  0  0  0  0  # atno 3515 bound_to 339 
   -2.9838   18.4704   73.1515 H   0  0  0  0  0  0  0  0  0  0  0  0  # atno 3523 bound_to 346 
   -7.7127   26.8314   63.6576 H   0  0  0  0  0  0  0  0  0  0  0  0  # atno 3576 bound_to 185 
   -6.8338   28.6554   65.4013 H   0  0  0  0  0  0  0  0  0  0  0  0  # atno 3663 bound_to 154 
   -2.2074   24.8274   72.7615 H   0  0  0  0  0  0  0  0  0  0  0  0  # atno 3793 bound_to 171 
   -6.1024   23.0645   71.4083 H   0  0  0  0  0  0  0  0  0  0  0  0  # atno 3800 bound_to 178 
  -15.0101    8.3581   76.8169 H   0  0  0  0  0  0  0  0  0  0  0  0  # atno 3973 bound_to 1471
  -20.9454   12.9010   64.5191 H   0  0  0  0  0  0  0  0  0  0  0  0  # atno 4183 bound_to 1244
  -12.3997   15.5544   61.5324 H   0  0  0  0  0  0  0  0  0  0  0  0  # atno 4268 bound_to 1114
  -15.5885   18.7366   59.1860 H   0  0  0  0  0  0  0  0  0  0  0  0  # atno 4280 bound_to 1130
  -12.1792   15.4334   57.2626 H   0  0  0  0  0  0  0  0  0  0  0  0  # atno 4409 bound_to 924 
  -15.3602    8.9111   78.3067 LP  0  0  0  0  0  0  0  0  0  0  0  0  # atno 4696 bound_to 1471
  -15.6664    7.3550   77.9174 LP  0  0  0  0  0  0  0  0  0  0  0  0  # atno 4697 bound_to 1471
  -15.4993   17.6415   75.1679 LP  0  0  0  0  0  0  0  0  0  0  0  0  # atno 4731 bound_to 414 
  -14.5824   17.0385   76.3771 LP  0  0  0  0  0  0  0  0  0  0  0  0  # atno 4732 bound_to 414 
  -13.8490   15.3438   60.8231 LP  0  0  0  0  0  0  0  0  0  0  0  0  # atno 4733 bound_to 1114
  -13.6721   16.4474   62.0137 LP  0  0  0  0  0  0  0  0  0  0  0  0  # atno 4734 bound_to 1114
  -10.7559   15.0154   57.9315 LP  0  0  0  0  0  0  0  0  0  0  0  0  # atno 4763 bound_to 924 
  -10.9232   15.0361   56.3072 LP  0  0  0  0  0  0  0  0  0  0  0  0  # atno 4764 bound_to 924 
  -19.9058   13.9184   63.7897 LP  0  0  0  0  0  0  0  0  0  0  0  0  # atno 4771 bound_to 1244
  -20.5119   12.6412   62.9723 LP  0  0  0  0  0  0  0  0  0  0  0  0  # atno 4772 bound_to 1244
   -7.4902   22.4371   71.9815 LP  0  0  0  0  0  0  0  0  0  0  0  0  # atno 4775 bound_to 178 
   -7.0284   23.9409   72.4196 LP  0  0  0  0  0  0  0  0  0  0  0  0  # atno 4776 bound_to 178 
   -2.1910   23.4289   71.9299 LP  0  0  0  0  0  0  0  0  0  0  0  0  # atno 4779 bound_to 171 
   -3.5664   24.3028   72.0364 LP  0  0  0  0  0  0  0  0  0  0  0  0  # atno 4780 bound_to 171 
   -8.8078   25.6492   63.8826 LP  0  0  0  0  0  0  0  0  0  0  0  0  # atno 4783 bound_to 185 
   -7.4327   25.3457   63.0558 LP  0  0  0  0  0  0  0  0  0  0  0  0  # atno 4784 bound_to 185 
   -3.3705   16.9940   72.5869 LP  0  0  0  0  0  0  0  0  0  0  0  0  # atno 4785 bound_to 346 
   -1.8077   17.3865   72.8515 LP  0  0  0  0  0  0  0  0  0  0  0  0  # atno 4786 bound_to 346 
   -3.1147   22.2980   74.7873 LP  0  0  0  0  0  0  0  0  0  0  0  0  # atno 4787 bound_to 339 
   -3.6236   20.8052   74.3639 LP  0  0  0  0  0  0  0  0  0  0  0  0  # atno 4788 bound_to 339 
   -7.6373   29.9977   64.9533 LP  0  0  0  0  0  0  0  0  0  0  0  0  # atno 4797 bound_to 154 
   -8.4607   28.6486   65.3643 LP  0  0  0  0  0  0  0  0  0  0  0  0  # atno 4798 bound_to 154 

$$$$
