#       Name:                unknown
#       Creating user name   williammccorkindale
#       Creation time:       Tue Jun  7 14:55:40 2022


#       File generated by GOLD software.
#

@<TRIPOS>MOLECULE
unknown|prepared_Mpro-x0946|mol2|1|dock4
    18    18     1
SMALL
NO_CHARGES


@<TRIPOS>ATOM
      1 Br1        -14.0443  15.9171  72.9700 Br             1 RES1               0.0000
      2 C2         -13.3289  14.4657  71.9693 C.ar           1 RES1               0.0000
      3 C3         -12.6180  14.6512  70.7891 C.ar           1 RES1               0.0000
      4 C4         -12.1157  13.5651  70.0941 C.ar           1 RES1               0.0000
      5 C5         -12.2995  12.2727  70.5414 C.ar           1 RES1               0.0000
      6 S6         -11.6522  10.9190  69.6406 S.o2           1 RES1               0.0000
      7 N7          -9.9168  11.0305  69.6950 N.3            1 RES1               0.0000
      8 O8         -12.0502   9.6198  70.2213 O.2            1 RES1               0.0000
      9 O9         -12.0554  11.0906  68.2158 O.2            1 RES1               0.0000
     10 C10        -13.0048  12.0848  71.7129 C.ar           1 RES1               0.0000
     11 C11        -13.5178  13.1763  72.4245 C.ar           1 RES1               0.0000
     12 H12        -12.4798  15.6657  70.4479 H              1 RES1               0.0000
     13 H13        -11.5590  13.7196  69.1689 H              1 RES1               0.0000
     14 H14         -9.7075  11.9115  70.2421 H              1 RES1               0.0000
     15 H15         -9.5595  11.1737  68.7322 H              1 RES1               0.0000
     16 H16        -13.1369  11.0677  72.0444 H              1 RES1               0.0000
     17 H17        -14.0663  13.0070  73.3383 H              1 RES1               0.0000
     18 ****        -9.5058  10.2114  70.0951 LP             1 RES1               0.0000
@<TRIPOS>BOND
    1    1    2 1     
    2    2    3 ar    
    3    3    4 ar    
    4    4    5 ar    
    5    5    6 1     
    6    6    7 1     
    7    6    8 2     
    8    6    9 2     
    9    5   10 ar    
   10   10   11 ar    
   11   11    2 ar    
   12    3   12 1     
   13    4   13 1     
   14    7   14 1     
   15    7   15 1     
   16   10   16 1     
   17   11   17 1     
   18    7   18 1     
@<TRIPOS>SUBSTRUCTURE
      1 RES1           1
@<TRIPOS>SET
LONE_PAIRS      STATIC     ATOMS    <user>   **** ""
3 18 8 9
DONOR_HYDROGENS      STATIC     ATOMS    <user>   **** ""
2 14 15
ATOM$BLUE        STATIC     ATOMS    COLORGROUP SYSTEM
3 18 8 9
ATOM$RED        STATIC     ATOMS    COLORGROUP SYSTEM
2 14 15
@<TRIPOS>COMMENT
> <Gold.Version>
2022.1.0

> <Gold.Id.Protein>
6LU7|6LU7_protein|mol2

> <Gold.Protein.RotatedTorsions>
[ 3973 1471 1470 1467 ] final  -89.49 input   60.00 | X-H torsion
[ 3372  414  413  411 ] final -141.46 input   60.00 | X-H torsion
[ 4268 1114 1113 1110 ] final  -72.17 input   59.99 | X-H torsion
[ 4409  924  923  921 ] final   97.65 input   59.99 | X-H torsion
[ 4183 1244 1243 1241 ] final  117.80 input   59.99 | X-H torsion
[ 3800  178  177  174 ] final   71.79 input   60.00 | X-H torsion
[ 3793  171  170  167 ] final   22.70 input   60.00 | X-H torsion
[ 3576  185  184  181 ] final   48.91 input   60.00 | X-H torsion
[ 3523  346  345  342 ] final   96.74 input   60.01 | X-H torsion
[ 3515  339  338  335 ] final   -3.03 input   60.00 | X-H torsion
[ 3663  154  153  150 ] final  102.83 input   60.00 | X-H torsion
[ 4280 1130 1129 1126 ] final   46.00 input   60.00 | X-H torsion

> <Gold.Protein.ActiveResidues>
 VAL20   THR21   CYS22   GLY23   THR24   THR25   THR26   LEU27   ASN28   PRO39  
 ARG40   HIS41   VAL42   CYS44   THR45   SER46   ASP48   MET49   LEU50   PRO52  
 TYR54   TYR118  ASN119  ILE136  GLY138  SER139  PHE140  LEU141  ASN142  GLY143 
 SER144  CYS145  GLY146  SER147  TYR161  HIS163  HIS164  MET165  GLU166  LEU167 
 PRO168  THR169  GLY170  VAL171  HIS172  ALA173  PHE181  PHE185  VAL186  ASP187 
 ARG188  GLN189  THR190  ALA191  GLN192  ALA193 

> <Gold.Protein.RotatedAtoms>
  -15.4935   17.1521   75.6905 H   0  0  0  0  0  0  0  0  0  0  0  0  # atno 3372 bound_to 414 
   -3.6131   20.7808   74.3908 H   0  0  0  0  0  0  0  0  0  0  0  0  # atno 3515 bound_to 339 
   -2.2862   18.3868   73.1764 H   0  0  0  0  0  0  0  0  0  0  0  0  # atno 3523 bound_to 346 
   -8.5902   26.4678   64.0166 H   0  0  0  0  0  0  0  0  0  0  0  0  # atno 3576 bound_to 185 
   -7.9566   29.9381   64.9674 H   0  0  0  0  0  0  0  0  0  0  0  0  # atno 3663 bound_to 154 
   -3.5574   24.2567   72.0088 H   0  0  0  0  0  0  0  0  0  0  0  0  # atno 3793 bound_to 171 
   -6.5732   24.0054   72.1611 H   0  0  0  0  0  0  0  0  0  0  0  0  # atno 3800 bound_to 178 
  -15.1003    9.1115   77.7114 H   0  0  0  0  0  0  0  0  0  0  0  0  # atno 3973 bound_to 1471
  -20.4060   12.7586   62.9145 H   0  0  0  0  0  0  0  0  0  0  0  0  # atno 4183 bound_to 1244
  -12.4132   15.7628   61.7412 H   0  0  0  0  0  0  0  0  0  0  0  0  # atno 4268 bound_to 1114
  -15.7243   19.9742   59.5703 H   0  0  0  0  0  0  0  0  0  0  0  0  # atno 4280 bound_to 1130
  -10.4555   14.9072   56.8238 H   0  0  0  0  0  0  0  0  0  0  0  0  # atno 4409 bound_to 924 
  -15.7188    7.7931   78.4376 LP  0  0  0  0  0  0  0  0  0  0  0  0  # atno 4696 bound_to 1471
  -15.2169    7.7142   76.8856 LP  0  0  0  0  0  0  0  0  0  0  0  0  # atno 4697 bound_to 1471
  -14.0115   17.4653   76.2854 LP  0  0  0  0  0  0  0  0  0  0  0  0  # atno 4731 bound_to 414 
  -14.5854   18.3248   75.0210 LP  0  0  0  0  0  0  0  0  0  0  0  0  # atno 4732 bound_to 414 
  -13.5921   15.2044   60.7684 LP  0  0  0  0  0  0  0  0  0  0  0  0  # atno 4733 bound_to 1114
  -13.9155   16.3769   61.8580 LP  0  0  0  0  0  0  0  0  0  0  0  0  # atno 4734 bound_to 1114
  -11.9983   15.3642   56.5809 LP  0  0  0  0  0  0  0  0  0  0  0  0  # atno 4763 bound_to 924 
  -11.4168   15.2171   58.0997 LP  0  0  0  0  0  0  0  0  0  0  0  0  # atno 4764 bound_to 924 
  -21.0016   12.7705   64.4288 LP  0  0  0  0  0  0  0  0  0  0  0  0  # atno 4771 bound_to 1244
  -19.9594   13.9325   63.9491 LP  0  0  0  0  0  0  0  0  0  0  0  0  # atno 4772 bound_to 1244
   -6.3617   22.6085   71.3535 LP  0  0  0  0  0  0  0  0  0  0  0  0  # atno 4775 bound_to 178 
   -7.6828   22.8219   72.2894 LP  0  0  0  0  0  0  0  0  0  0  0  0  # atno 4776 bound_to 178 
   -2.2512   24.8588   72.7698 LP  0  0  0  0  0  0  0  0  0  0  0  0  # atno 4779 bound_to 171 
   -2.1465   23.4477   71.9547 LP  0  0  0  0  0  0  0  0  0  0  0  0  # atno 4780 bound_to 171 
   -8.1764   25.0375   63.3601 LP  0  0  0  0  0  0  0  0  0  0  0  0  # atno 4783 bound_to 185 
   -7.1804   26.3236   63.2168 LP  0  0  0  0  0  0  0  0  0  0  0  0  # atno 4784 bound_to 185 
   -3.6607   17.6085   72.7853 LP  0  0  0  0  0  0  0  0  0  0  0  0  # atno 4785 bound_to 346 
   -2.2200   16.8562   72.6280 LP  0  0  0  0  0  0  0  0  0  0  0  0  # atno 4786 bound_to 346 
   -2.7167   21.0446   75.7230 LP  0  0  0  0  0  0  0  0  0  0  0  0  # atno 4787 bound_to 339 
   -3.1352   22.2927   74.7567 LP  0  0  0  0  0  0  0  0  0  0  0  0  # atno 4788 bound_to 339 
   -8.2524   28.4108   65.4447 LP  0  0  0  0  0  0  0  0  0  0  0  0  # atno 4797 bound_to 154 
   -6.7148   28.9437   65.3098 LP  0  0  0  0  0  0  0  0  0  0  0  0  # atno 4798 bound_to 154 

> <Gold.Score>
     Score     S(PLP)   S(hbond)     S(cho)   S(metal)  DE(clash)   DE(tors)     intcor
     37.28     -31.29       2.00       0.00       0.00       0.00       1.06       2.11

> <Gold.PLP.Fitness>
37.2821

> <Gold.PLP.PLP>
-31.2940

> <Gold.PLP.part.hbond>
-2.0000

> <Gold.PLP.part.metal>
0.0000

> <Gold.PLP.part.buried>
-4.3186

> <Gold.PLP.part.nonpolar>
-26.1650

> <Gold.PLP.part.repulsive>
0.8042

> <Gold.PLP.ligand.clash>
0.0000

> <Gold.PLP.ligand.torsion>
1.0594

> <Gold.PLP.Chemscore.Hbond>
2.0000

> <Gold.PLP.Chemscore.CHOScore>
0.0000

> <Gold.PLP.Chemscore.Metal>
0.0000

> <Gold.Chemscore.Hbonds>
donor molecule, donor type, donor heavy atom, donor atom, acceptor molecule, acceptor atom, score
      L1  H     7    14       P1  1464  1.00
      P1  H  1281  4132       L1     9  1.00

> <Gold.PLP.Chemscore.Internal.Correction>
2.1069

