#       Name:                unknown
#       Creating user name   williammccorkindale
#       Creation time:       Tue Jun  7 14:55:39 2022


#       File generated by GOLD software.
#

@<TRIPOS>MOLECULE
unknown|prepared_Mpro-x2193|mol2|1|dock5
    33    34     1
SMALL
NO_CHARGES


@<TRIPOS>ATOM
      1 C1         -12.4918  14.9543  64.5449 C.3            1 RES1               0.0000
      2 S2         -10.9469  14.9867  65.4474 S.o2           1 RES1               0.0000
      3 O3         -10.2067  16.2643  65.1091 O.2            1 RES1               0.0000
      4 O4         -10.1096  13.7896  65.1328 O.2            1 RES1               0.0000
      5 C5         -11.3478  15.0767  67.1483 C.ar           1 RES1               0.0000
      6 C6         -11.8103  13.9834  67.8486 C.ar           1 RES1               0.0000
      7 C7         -12.1296  14.0383  69.1855 C.ar           1 RES1               0.0000
      8 C8         -11.9978  15.2198  69.9023 C.ar           1 RES1               0.0000
      9 C9         -11.5373  16.3142  69.2108 C.ar           1 RES1               0.0000
     10 C10        -11.2226  16.2421  67.8743 C.ar           1 RES1               0.0000
     11 N11        -12.3203  15.2892  71.2873 N.pl3          1 RES1               0.0000
     12 C12        -13.3795  14.4335  71.7710 C.3            1 RES1               0.0000
     13 C13        -13.1826  14.3625  73.2929 C.3            1 RES1               0.0000
     14 N14        -13.3524  15.7031  73.7749 N.3            1 RES1               0.0000
     15 C15        -12.1992  16.4999  73.4404 C.3            1 RES1               0.0000
     16 C16        -11.5971  16.1907  72.1224 C.3            1 RES1               0.0000
     17 H17        -13.1274  15.7576  64.9707 H              1 RES1               0.0000
     18 H18        -12.3406  15.0472  63.4694 H              1 RES1               0.0000
     19 H19        -12.9921  13.9926  64.8343 H              1 RES1               0.0000
     20 H20        -11.9202  13.0482  67.3036 H              1 RES1               0.0000
     21 H21        -12.4994  13.1489  69.7227 H              1 RES1               0.0000
     22 H22        -11.4235  17.2437  69.7415 H              1 RES1               0.0000
     23 H23        -10.8554  17.1070  67.3145 H              1 RES1               0.0000
     24 H24        -14.3645  14.9252  71.6038 H              1 RES1               0.0000
     25 H25        -13.3399  13.4084  71.3504 H              1 RES1               0.0000
     26 H26        -13.9281  13.6578  73.7021 H              1 RES1               0.0000
     27 H27        -12.1594  14.0317  73.4978 H              1 RES1               0.0000
     28 H28        -14.2189  16.0955  73.2992 H              1 RES1               0.0000
     29 H29        -11.4482  16.3293  74.2627 H              1 RES1               0.0000
     30 H30        -12.5001  17.5622  73.5513 H              1 RES1               0.0000
     31 H31        -10.5561  15.8317  72.2600 H              1 RES1               0.0000
     32 H32        -11.4837  17.1798  71.5851 H              1 RES1               0.0000
     33 ****       -13.4542  15.7154  74.7696 LP             1 RES1               0.0000
@<TRIPOS>BOND
    1    1    2 1     
    2    2    3 2     
    3    2    4 2     
    4    2    5 1     
    5    5    6 ar    
    6    6    7 ar    
    7    7    8 ar    
    8    8    9 ar    
    9    9   10 ar    
   10    8   11 1     
   11   11   12 1     
   12   12   13 1     
   13   13   14 1     
   14   14   15 1     
   15   15   16 1     
   16   10    5 ar    
   17   16   11 1     
   18    1   17 1     
   19    1   18 1     
   20    1   19 1     
   21    6   20 1     
   22    7   21 1     
   23    9   22 1     
   24   10   23 1     
   25   12   24 1     
   26   12   25 1     
   27   13   26 1     
   28   13   27 1     
   29   14   28 1     
   30   15   29 1     
   31   15   30 1     
   32   16   31 1     
   33   16   32 1     
   34   14   33 1     
@<TRIPOS>SUBSTRUCTURE
      1 RES1           1
@<TRIPOS>SET
LONE_PAIRS      STATIC     ATOMS    <user>   **** ""
3 3 4 33
DONOR_HYDROGENS      STATIC     ATOMS    <user>   **** ""
1 28
ATOM$BLUE        STATIC     ATOMS    COLORGROUP SYSTEM
3 3 4 33
ATOM$RED        STATIC     ATOMS    COLORGROUP SYSTEM
1 28
@<TRIPOS>COMMENT
> <Gold.Version>
2022.1.0

> <Gold.Id.Protein>
6LU7|6LU7_protein|mol2

> <Gold.Protein.RotatedTorsions>
[ 3973 1471 1470 1467 ] final  -33.74 input   60.00 | X-H torsion
[ 3372  414  413  411 ] final  -93.09 input   60.00 | X-H torsion
[ 4268 1114 1113 1110 ] final  115.19 input   59.99 | X-H torsion
[ 4409  924  923  921 ] final -117.61 input   59.99 | X-H torsion
[ 4183 1244 1243 1241 ] final   58.78 input   59.99 | X-H torsion
[ 3800  178  177  174 ] final -122.34 input   60.00 | X-H torsion
[ 3793  171  170  167 ] final -168.21 input   60.00 | X-H torsion
[ 3576  185  184  181 ] final  178.26 input   60.00 | X-H torsion
[ 3523  346  345  342 ] final  147.36 input   60.01 | X-H torsion
[ 3515  339  338  335 ] final  -25.57 input   60.00 | X-H torsion
[ 3663  154  153  150 ] final  -92.20 input   60.00 | X-H torsion
[ 4280 1130 1129 1126 ] final  -63.05 input   60.00 | X-H torsion

> <Gold.Protein.ActiveResidues>
 VAL20   THR21   CYS22   GLY23   THR24   THR25   THR26   LEU27   ASN28   PRO39  
 ARG40   HIS41   VAL42   CYS44   THR45   SER46   ASP48   MET49   LEU50   PRO52  
 TYR54   TYR118  ASN119  ILE136  GLY138  SER139  PHE140  LEU141  ASN142  GLY143 
 SER144  CYS145  GLY146  SER147  TYR161  HIS163  HIS164  MET165  GLU166  LEU167 
 PRO168  THR169  GLY170  VAL171  HIS172  ALA173  PHE181  PHE185  VAL186  ASP187 
 ARG188  GLN189  THR190  ALA191  GLN192  ALA193 

> <Gold.Protein.RotatedAtoms>
  -15.4728   17.6867   75.1407 H   0  0  0  0  0  0  0  0  0  0  0  0  # atno 3372 bound_to 414 
   -3.4864   20.5517   74.6464 H   0  0  0  0  0  0  0  0  0  0  0  0  # atno 3515 bound_to 339 
   -1.8068   17.7725   72.9931 H   0  0  0  0  0  0  0  0  0  0  0  0  # atno 3523 bound_to 346 
   -7.1566   26.1817   63.1639 H   0  0  0  0  0  0  0  0  0  0  0  0  # atno 3576 bound_to 185 
   -7.1097   28.3697   65.4860 H   0  0  0  0  0  0  0  0  0  0  0  0  # atno 3663 bound_to 154 
   -1.7545   23.9688   72.3838 H   0  0  0  0  0  0  0  0  0  0  0  0  # atno 3793 bound_to 171 
   -7.3478   22.3461   71.8447 H   0  0  0  0  0  0  0  0  0  0  0  0  # atno 3800 bound_to 178 
  -14.9687    8.6790   76.9617 H   0  0  0  0  0  0  0  0  0  0  0  0  # atno 3973 bound_to 1471
  -20.9429   12.3792   63.5614 H   0  0  0  0  0  0  0  0  0  0  0  0  # atno 4183 bound_to 1244
  -14.1646   15.7158   61.0922 H   0  0  0  0  0  0  0  0  0  0  0  0  # atno 4268 bound_to 1114
  -16.4177   20.0777   58.2162 H   0  0  0  0  0  0  0  0  0  0  0  0  # atno 4280 bound_to 1130
  -11.7749   15.3244   57.9504 H   0  0  0  0  0  0  0  0  0  0  0  0  # atno 4409 bound_to 924 
  -15.5000    8.6450   78.4994 LP  0  0  0  0  0  0  0  0  0  0  0  0  # atno 4696 bound_to 1471
  -15.5682    7.2979   77.5790 LP  0  0  0  0  0  0  0  0  0  0  0  0  # atno 4697 bound_to 1471
  -14.6361   17.0175   76.3655 LP  0  0  0  0  0  0  0  0  0  0  0  0  # atno 4731 bound_to 414 
  -13.9817   18.2341   75.4946 LP  0  0  0  0  0  0  0  0  0  0  0  0  # atno 4732 bound_to 414 
  -13.1318   16.3980   62.1484 LP  0  0  0  0  0  0  0  0  0  0  0  0  # atno 4733 bound_to 1114
  -12.6119   15.2307   61.1316 LP  0  0  0  0  0  0  0  0  0  0  0  0  # atno 4734 bound_to 1114
  -10.3867   14.8914   57.2200 LP  0  0  0  0  0  0  0  0  0  0  0  0  # atno 4763 bound_to 924 
  -11.6996   15.2698   56.3258 LP  0  0  0  0  0  0  0  0  0  0  0  0  # atno 4764 bound_to 924 
  -20.5163   13.5390   64.6201 LP  0  0  0  0  0  0  0  0  0  0  0  0  # atno 4771 bound_to 1244
  -19.9039   13.5460   63.1063 LP  0  0  0  0  0  0  0  0  0  0  0  0  # atno 4772 bound_to 1244
   -7.2091   23.8366   72.4829 LP  0  0  0  0  0  0  0  0  0  0  0  0  # atno 4775 bound_to 178 
   -6.0554   23.2647   71.4787 LP  0  0  0  0  0  0  0  0  0  0  0  0  # atno 4776 bound_to 178 
   -3.2045   23.6167   71.7346 LP  0  0  0  0  0  0  0  0  0  0  0  0  # atno 4779 bound_to 171 
   -3.0089   24.9798   72.6121 LP  0  0  0  0  0  0  0  0  0  0  0  0  # atno 4780 bound_to 171 
   -8.4940   26.5857   63.9982 LP  0  0  0  0  0  0  0  0  0  0  0  0  # atno 4783 bound_to 185 
   -8.3066   25.0635   63.4376 LP  0  0  0  0  0  0  0  0  0  0  0  0  # atno 4784 bound_to 185 
   -3.3455   18.2982   73.0585 LP  0  0  0  0  0  0  0  0  0  0  0  0  # atno 4785 bound_to 346 
   -3.0180   16.7850   72.5394 LP  0  0  0  0  0  0  0  0  0  0  0  0  # atno 4786 bound_to 346 
   -2.6442   21.4051   75.7465 LP  0  0  0  0  0  0  0  0  0  0  0  0  # atno 4787 bound_to 339 
   -3.3354   22.1629   74.4758 LP  0  0  0  0  0  0  0  0  0  0  0  0  # atno 4788 bound_to 339 
   -7.2386   29.9139   64.9890 LP  0  0  0  0  0  0  0  0  0  0  0  0  # atno 4797 bound_to 154 
   -8.5815   29.0201   65.2432 LP  0  0  0  0  0  0  0  0  0  0  0  0  # atno 4798 bound_to 154 

> <Gold.Score>
     Score     S(PLP)   S(hbond)     S(cho)   S(metal)  DE(clash)   DE(tors)     intcor
     46.53     -44.52       0.98       0.00       0.00       0.00       1.54       2.17

> <Gold.PLP.Fitness>
46.5261

> <Gold.PLP.PLP>
-44.5231

> <Gold.PLP.part.hbond>
-2.1360

> <Gold.PLP.part.metal>
0.0000

> <Gold.PLP.part.buried>
-6.8179

> <Gold.PLP.part.nonpolar>
-38.2018

> <Gold.PLP.part.repulsive>
0.2715

> <Gold.PLP.ligand.clash>
0.0000

> <Gold.PLP.ligand.torsion>
1.5448

> <Gold.PLP.Chemscore.Hbond>
0.9750

> <Gold.PLP.Chemscore.CHOScore>
0.0000

> <Gold.PLP.Chemscore.Metal>
0.0000

> <Gold.Chemscore.Hbonds>
donor molecule, donor type, donor heavy atom, donor atom, acceptor molecule, acceptor atom, score
      P1  H  1105  4261       L1     3  0.98

> <Gold.PLP.Chemscore.Internal.Correction>
2.1676

