#       Name:                xxxx
#       Creating user name   williammccorkindale
#       Creation time:       Sun May 22 19:49:22 2022


#       File generated by GOLD software.
#

@<TRIPOS>MOLECULE
xxxx|x0072|mol2|1|dock4
    26    26     1
SMALL
NO_CHARGES


@<TRIPOS>ATOM
      1 C01        -10.4878  19.5555  67.0779 C.3            1 LIG1101            0.0000
      2 S02         -9.8748  17.8512  67.1838 S.o2           1 LIG1101            0.0000
      3 O03         -8.6875  17.7497  68.0376 O.2            1 LIG1101            0.0000
      4 O04         -9.3101  17.4105  65.9197 O.2            1 LIG1101            0.0000
      5 N05        -11.1251  16.8081  67.6872 N.pl3          1 LIG1101            0.0000
      6 C06        -11.1419  16.4295  69.0766 C.3            1 LIG1101            0.0000
      7 C07        -11.7444  15.0610  69.3626 C.3            1 LIG1101            0.0000
      8 C08        -12.2210  15.1394  70.8047 C.ar           1 LIG1101            0.0000
      9 C09        -13.4979  14.7307  71.1668 C.ar           1 LIG1101            0.0000
     10 C10        -13.8815  14.7990  72.4958 C.ar           1 LIG1101            0.0000
     11 C11        -12.9879  15.2446  73.4571 C.ar           1 LIG1101            0.0000
     12 C12        -11.7083  15.6403  73.0908 C.ar           1 LIG1101            0.0000
     13 C13        -11.3314  15.5813  71.7640 C.ar           1 LIG1101            0.0000
     14 H1          -9.7116  20.1952  66.6602 H              1 LIG1101            0.0000
     15 H2         -11.3672  19.5858  66.4364 H              1 LIG1101            0.0000
     16 H3         -10.7524  19.9087  68.0735 H              1 LIG1101            0.0000
     17 H4         -11.8265  16.4688  67.0368 H              1 LIG1101            0.0000
     18 H5         -11.7195  17.1738  69.6227 H              1 LIG1101            0.0000
     19 H6         -10.1151  16.4291  69.4392 H              1 LIG1101            0.0000
     20 H7         -10.9939  14.2802  69.2487 H              1 LIG1101            0.0000
     21 H8         -12.5798  14.8622  68.6929 H              1 LIG1101            0.0000
     22 H9         -14.1909  14.3600  70.4130 H              1 LIG1101            0.0000
     23 H10        -14.8880  14.5018  72.7864 H              1 LIG1101            0.0000
     24 H11        -13.2902  15.2845  74.5026 H              1 LIG1101            0.0000
     25 H12        -11.0070  15.9947  73.8448 H              1 LIG1101            0.0000
     26 H13        -10.3272  15.8849  71.4723 H              1 LIG1101            0.0000
@<TRIPOS>BOND
    1    1    2 1     
    2    2    3 2     
    3    2    4 2     
    4    2    5 1     
    5    5    6 1     
    6    6    7 1     
    7    7    8 1     
    8    8    9 ar    
    9    9   10 ar    
   10   10   11 ar    
   11   11   12 ar    
   12    8   13 ar    
   13   12   13 ar    
   14    1   14 1     
   15    1   15 1     
   16    1   16 1     
   17    5   17 1     
   18    6   18 1     
   19    6   19 1     
   20    7   20 1     
   21    7   21 1     
   22    9   22 1     
   23   10   23 1     
   24   11   24 1     
   25   12   25 1     
   26   13   26 1     
@<TRIPOS>SUBSTRUCTURE
      1 LIG1101        1
@<TRIPOS>SET
LONE_PAIRS      STATIC     ATOMS    <user>   **** ""
2 3 4
DONOR_HYDROGENS      STATIC     ATOMS    <user>   **** ""
1 17
ATOM$BLUE        STATIC     ATOMS    COLORGROUP SYSTEM
2 3 4
ATOM$RED        STATIC     ATOMS    COLORGROUP SYSTEM
1 17
@<TRIPOS>COMMENT
> <Gold.Version>
2022.1.0

> <Gold.Id.Protein>
6LU7|6LU7_protein|mol2

> <Gold.Protein.RotatedTorsions>
[ 3973 1471 1470 1467 ] final    7.93 input   60.00 | X-H torsion
[ 3372  414  413  411 ] final -150.13 input   60.00 | X-H torsion
[ 4268 1114 1113 1110 ] final -167.34 input   59.99 | X-H torsion
[ 4409  924  923  921 ] final   43.83 input   59.99 | X-H torsion
[ 4183 1244 1243 1241 ] final  -32.43 input   59.99 | X-H torsion
[ 3800  178  177  174 ] final   53.92 input   60.00 | X-H torsion
[ 3793  171  170  167 ] final  -71.51 input   60.00 | X-H torsion
[ 3576  185  184  181 ] final  115.99 input   60.00 | X-H torsion
[ 3523  346  345  342 ] final   23.67 input   60.01 | X-H torsion
[ 3515  339  338  335 ] final   50.53 input   60.00 | X-H torsion
[ 3663  154  153  150 ] final   88.78 input   60.00 | X-H torsion
[ 4280 1130 1129 1126 ] final -121.18 input   60.00 | X-H torsion

> <Gold.Protein.ActiveResidues>
 VAL20   THR21   CYS22   GLY23   THR24   THR25   THR26   LEU27   ASN28   PRO39  
 ARG40   HIS41   VAL42   CYS44   THR45   SER46   ASP48   MET49   LEU50   PRO52  
 TYR54   TYR118  ASN119  ILE136  GLY138  SER139  PHE140  LEU141  ASN142  GLY143 
 SER144  CYS145  GLY146  SER147  TYR161  HIS163  HIS164  MET165  GLU166  LEU167 
 PRO168  THR169  GLY170  VAL171  HIS172  ALA173  PHE181  PHE185  VAL186  ASP187 
 ARG188  GLN189  THR190  ALA191  GLN192  ALA193 

> <Gold.Protein.RotatedAtoms>
  -15.4348   17.0835   75.7995 H   0  0  0  0  0  0  0  0  0  0  0  0  # atno 3372 bound_to 414 
   -3.6211   21.5963   74.1747 H   0  0  0  0  0  0  0  0  0  0  0  0  # atno 3515 bound_to 339 
   -3.3849   18.2548   73.0423 H   0  0  0  0  0  0  0  0  0  0  0  0  # atno 3523 bound_to 346 
   -7.6937   26.8270   63.6461 H   0  0  0  0  0  0  0  0  0  0  0  0  # atno 3576 bound_to 185 
   -8.1612   29.8388   64.9944 H   0  0  0  0  0  0  0  0  0  0  0  0  # atno 3663 bound_to 154 
   -2.6470   24.9904   72.7258 H   0  0  0  0  0  0  0  0  0  0  0  0  # atno 3793 bound_to 171 
   -6.3553   23.9265   71.9856 H   0  0  0  0  0  0  0  0  0  0  0  0  # atno 3800 bound_to 178 
  -15.0895    8.0465   76.7923 H   0  0  0  0  0  0  0  0  0  0  0  0  # atno 3973 bound_to 1471
  -20.7975   13.1661   64.6335 H   0  0  0  0  0  0  0  0  0  0  0  0  # atno 4183 bound_to 1244
  -13.2001   15.1148   60.8076 H   0  0  0  0  0  0  0  0  0  0  0  0  # atno 4268 bound_to 1114
  -16.3062   19.2070   57.9782 H   0  0  0  0  0  0  0  0  0  0  0  0  # atno 4280 bound_to 1130
  -11.0656   15.0804   56.2617 H   0  0  0  0  0  0  0  0  0  0  0  0  # atno 4409 bound_to 924 
  -15.2307    9.0663   78.0525 LP  0  0  0  0  0  0  0  0  0  0  0  0  # atno 4696 bound_to 1471
  -15.7159    7.5137   78.1965 LP  0  0  0  0  0  0  0  0  0  0  0  0  # atno 4697 bound_to 1471
  -13.9400   17.5698   76.2201 LP  0  0  0  0  0  0  0  0  0  0  0  0  # atno 4731 bound_to 414 
  -14.7161   18.2893   74.9765 LP  0  0  0  0  0  0  0  0  0  0  0  0  # atno 4732 bound_to 414 
  -14.1463   16.1869   61.5843 LP  0  0  0  0  0  0  0  0  0  0  0  0  # atno 4733 bound_to 1114
  -12.5688   16.0472   61.9824 LP  0  0  0  0  0  0  0  0  0  0  0  0  # atno 4734 bound_to 1114
  -12.1579   15.4275   57.4169 LP  0  0  0  0  0  0  0  0  0  0  0  0  # atno 4763 bound_to 924 
  -10.6428   14.9795   57.8298 LP  0  0  0  0  0  0  0  0  0  0  0  0  # atno 4764 bound_to 924 
  -19.8530   13.8218   63.4820 LP  0  0  0  0  0  0  0  0  0  0  0  0  # atno 4771 bound_to 1244
  -20.7137   12.4708   63.1647 LP  0  0  0  0  0  0  0  0  0  0  0  0  # atno 4772 bound_to 1244
   -6.5834   22.4240   71.4037 LP  0  0  0  0  0  0  0  0  0  0  0  0  # atno 4775 bound_to 178 
   -7.6806   23.0859   72.4160 LP  0  0  0  0  0  0  0  0  0  0  0  0  # atno 4776 bound_to 178 
   -1.8672   23.6728   72.1747 LP  0  0  0  0  0  0  0  0  0  0  0  0  # atno 4779 bound_to 171 
   -3.4474   23.8947   71.8276 LP  0  0  0  0  0  0  0  0  0  0  0  0  # atno 4780 bound_to 171 
   -8.8115   25.6701   63.8909 LP  0  0  0  0  0  0  0  0  0  0  0  0  # atno 4783 bound_to 185 
   -7.4482   25.3293   63.0591 LP  0  0  0  0  0  0  0  0  0  0  0  0  # atno 4784 bound_to 185 
   -2.9600   16.7673   72.5376 LP  0  0  0  0  0  0  0  0  0  0  0  0  # atno 4785 bound_to 346 
   -1.8143   17.8303   73.0108 LP  0  0  0  0  0  0  0  0  0  0  0  0  # atno 4786 bound_to 346 
   -3.1174   20.4729   75.2388 LP  0  0  0  0  0  0  0  0  0  0  0  0  # atno 4787 bound_to 339 
   -2.7265   22.0431   75.4585 LP  0  0  0  0  0  0  0  0  0  0  0  0  # atno 4788 bound_to 339 
   -8.0598   28.2913   65.4871 LP  0  0  0  0  0  0  0  0  0  0  0  0  # atno 4797 bound_to 154 
   -6.7014   29.1632   65.2402 LP  0  0  0  0  0  0  0  0  0  0  0  0  # atno 4798 bound_to 154 

> <Gold.Score>
     Score     S(PLP)   S(hbond)     S(cho)   S(metal)  DE(clash)   DE(tors)     intcor
     42.31     -40.28       1.00       0.00       0.00       0.00       1.03       1.09

> <Gold.PLP.Fitness>
42.3076

> <Gold.PLP.PLP>
-40.2794

> <Gold.PLP.part.hbond>
-1.0000

> <Gold.PLP.part.metal>
0.0000

> <Gold.PLP.part.buried>
-4.9747

> <Gold.PLP.part.nonpolar>
-35.4623

> <Gold.PLP.part.repulsive>
0.0058

> <Gold.PLP.ligand.clash>
0.0000

> <Gold.PLP.ligand.torsion>
1.0291

> <Gold.PLP.Chemscore.Hbond>
1.0000

> <Gold.PLP.Chemscore.CHOScore>
0.0000

> <Gold.PLP.Chemscore.Metal>
0.0000

> <Gold.Chemscore.Hbonds>
donor molecule, donor type, donor heavy atom, donor atom, acceptor molecule, acceptor atom, score
      P1  H  1105  4261       L1     4  1.00

> <Gold.PLP.Chemscore.Internal.Correction>
1.0863

