#       Name:                unknown
#       Creating user name   williammccorkindale
#       Creation time:       Tue Jun  7 14:55:35 2022


#       File generated by GOLD software.
#

@<TRIPOS>MOLECULE
unknown|prepared_Mpro-x0426|mol2|1|dock3
    34    35     1
SMALL
NO_CHARGES


@<TRIPOS>ATOM
      1 F1         -12.3004  12.3852  70.3412 F              1 RES1               0.0000
      2 C2         -12.3895  13.5625  70.9834 C.ar           1 RES1               0.0000
      3 C3         -13.2377  13.5487  72.1023 C.ar           1 RES1               0.0000
      4 C4         -13.4501  14.6627  72.8797 C.ar           1 RES1               0.0000
      5 C5         -12.7885  15.8102  72.5125 C.ar           1 RES1               0.0000
      6 C6         -11.9575  15.8251  71.4168 C.ar           1 RES1               0.0000
      7 C7         -11.7424  14.6888  70.6260 C.ar           1 RES1               0.0000
      8 C8         -10.8539  14.7663  69.4821 C.2            1 RES1               0.0000
      9 O9         -10.1228  15.8147  69.3227 O.2            1 RES1               0.0000
     10 N10        -10.6852  13.7942  68.4814 N.am           1 RES1               0.0000
     11 C11         -9.7445  14.0019  67.3699 C.3            1 RES1               0.0000
     12 C12         -9.5962  12.8094  66.4986 C.3            1 RES1               0.0000
     13 C13        -10.6572  12.5918  65.5138 C.ar           1 RES1               0.0000
     14 C14        -11.8276  13.2820  65.5828 C.ar           1 RES1               0.0000
     15 C15        -12.8537  13.1029  64.6528 C.ar           1 RES1               0.0000
     16 N16        -12.6791  12.2199  63.6579 N.ar           1 RES1               0.0000
     17 C17        -11.5387  11.5209  63.5579 C.ar           1 RES1               0.0000
     18 C18        -10.5202  11.6852  64.4637 C.ar           1 RES1               0.0000
     19 H19        -13.7671  12.6481  72.4038 H              1 RES1               0.0000
     20 H20        -14.0940  14.6759  73.7397 H              1 RES1               0.0000
     21 H21        -12.9149  16.7257  73.0875 H              1 RES1               0.0000
     22 H22        -11.4600  16.7585  71.1722 H              1 RES1               0.0000
     23 H23        -11.2270  12.9182  68.5226 H              1 RES1               0.0000
     24 H24         -8.8066  14.4334  67.7156 H              1 RES1               0.0000
     25 H25        -10.2393  14.8041  66.7457 H              1 RES1               0.0000
     26 H26         -8.6436  12.9440  65.9252 H              1 RES1               0.0000
     27 H27         -9.5386  11.8882  67.1395 H              1 RES1               0.0000
     28 H28        -12.0360  13.9961  66.3560 H              1 RES1               0.0000
     29 H29        -13.7698  13.6688  64.7386 H              1 RES1               0.0000
     30 H30        -11.4115  10.8118  62.7502 H              1 RES1               0.0000
     31 H31         -9.5817  11.1191  64.3928 H              1 RES1               0.0000
     32 ****       -10.1717  16.5635  69.9837 LP             1 RES1               0.0000
     33 ****        -9.5064  15.8798  68.5380 LP             1 RES1               0.0000
     34 ****       -13.4057  12.0816  62.9849 LP             1 RES1               0.0000
@<TRIPOS>BOND
    1    1    2 1     
    2    2    3 ar    
    3    3    4 ar    
    4    4    5 ar    
    5    5    6 ar    
    6    6    7 ar    
    7    7    8 1     
    8    8    9 2     
    9    8   10 am    
   10   10   11 1     
   11   11   12 1     
   12   12   13 1     
   13   13   14 ar    
   14   14   15 ar    
   15   15   16 ar    
   16   16   17 ar    
   17   17   18 ar    
   18    2    7 ar    
   19   13   18 ar    
   20    3   19 1     
   21    4   20 1     
   22    5   21 1     
   23    6   22 1     
   24   10   23 1     
   25   11   24 1     
   26   11   25 1     
   27   12   26 1     
   28   12   27 1     
   29   14   28 1     
   30   15   29 1     
   31   17   30 1     
   32   18   31 1     
   33    9   32 1     
   34    9   33 1     
   35   16   34 1     
@<TRIPOS>SUBSTRUCTURE
      1 RES1           1
@<TRIPOS>SET
LONE_PAIRS      STATIC     ATOMS    <user>   **** ""
3 32 33 34
DONOR_HYDROGENS      STATIC     ATOMS    <user>   **** ""
1 23
ATOM$BLUE        STATIC     ATOMS    COLORGROUP SYSTEM
3 32 33 34
ATOM$RED        STATIC     ATOMS    COLORGROUP SYSTEM
1 23
@<TRIPOS>COMMENT
> <Gold.Version>
2022.1.0

> <Gold.Id.Protein>
6LU7|6LU7_protein|mol2

> <Gold.Protein.RotatedTorsions>
[ 3973 1471 1470 1467 ] final  133.24 input   60.00 | X-H torsion
[ 3372  414  413  411 ] final   74.43 input   60.00 | X-H torsion
[ 4268 1114 1113 1110 ] final   59.33 input   59.99 | X-H torsion
[ 4409  924  923  921 ] final   30.89 input   59.99 | X-H torsion
[ 4183 1244 1243 1241 ] final  -24.68 input   59.99 | X-H torsion
[ 3800  178  177  174 ] final    8.33 input   60.00 | X-H torsion
[ 3793  171  170  167 ] final  -57.49 input   60.00 | X-H torsion
[ 3576  185  184  181 ] final  -62.50 input   60.00 | X-H torsion
[ 3523  346  345  342 ] final  134.57 input   60.01 | X-H torsion
[ 3515  339  338  335 ] final   57.21 input   60.00 | X-H torsion
[ 3663  154  153  150 ] final   25.17 input   60.00 | X-H torsion
[ 4280 1130 1129 1126 ] final -112.91 input   60.00 | X-H torsion

> <Gold.Protein.ActiveResidues>
 VAL20   THR21   CYS22   GLY23   THR24   THR25   THR26   LEU27   ASN28   PRO39  
 ARG40   HIS41   VAL42   CYS44   THR45   SER46   ASP48   MET49   LEU50   PRO52  
 TYR54   TYR118  ASN119  ILE136  GLY138  SER139  PHE140  LEU141  ASN142  GLY143 
 SER144  CYS145  GLY146  SER147  TYR161  HIS163  HIS164  MET165  GLU166  LEU167 
 PRO168  THR169  GLY170  VAL171  HIS172  ALA173  PHE181  PHE185  VAL186  ASP187 
 ARG188  GLN189  THR190  ALA191  GLN192  ALA193 

> <Gold.Protein.RotatedAtoms>
  -13.8630   17.7595   76.0723 H   0  0  0  0  0  0  0  0  0  0  0  0  # atno 3372 bound_to 414 
   -3.5919   21.6994   74.1947 H   0  0  0  0  0  0  0  0  0  0  0  0  # atno 3515 bound_to 339 
   -1.8711   17.9608   73.0558 H   0  0  0  0  0  0  0  0  0  0  0  0  # atno 3523 bound_to 346 
   -8.2930   25.0661   63.4339 H   0  0  0  0  0  0  0  0  0  0  0  0  # atno 3576 bound_to 185 
   -8.5705   28.9806   65.2584 H   0  0  0  0  0  0  0  0  0  0  0  0  # atno 3663 bound_to 154 
   -2.8666   24.9973   72.6632 H   0  0  0  0  0  0  0  0  0  0  0  0  # atno 3793 bound_to 171 
   -6.0613   23.4217   71.5555 H   0  0  0  0  0  0  0  0  0  0  0  0  # atno 3800 bound_to 178 
  -15.7171    7.5750   78.2585 H   0  0  0  0  0  0  0  0  0  0  0  0  # atno 3973 bound_to 1471
  -20.8610   13.0615   64.6010 H   0  0  0  0  0  0  0  0  0  0  0  0  # atno 4183 bound_to 1244
  -14.0340   16.2988   61.7340 H   0  0  0  0  0  0  0  0  0  0  0  0  # atno 4268 bound_to 1114
  -16.3480   19.3342   57.9611 H   0  0  0  0  0  0  0  0  0  0  0  0  # atno 4280 bound_to 1130
  -11.2657   15.1400   56.2317 H   0  0  0  0  0  0  0  0  0  0  0  0  # atno 4409 bound_to 924 
  -15.1168    7.9637   76.7968 LP  0  0  0  0  0  0  0  0  0  0  0  0  # atno 4696 bound_to 1471
  -15.1977    9.0910   77.9755 LP  0  0  0  0  0  0  0  0  0  0  0  0  # atno 4697 bound_to 1471
  -14.9458   18.1905   74.9366 LP  0  0  0  0  0  0  0  0  0  0  0  0  # atno 4731 bound_to 414 
  -15.2931   16.9878   75.9853 LP  0  0  0  0  0  0  0  0  0  0  0  0  # atno 4732 bound_to 414 
  -12.4627   15.8965   61.8645 LP  0  0  0  0  0  0  0  0  0  0  0  0  # atno 4733 bound_to 1114
  -13.4126   15.1451   60.7692 LP  0  0  0  0  0  0  0  0  0  0  0  0  # atno 4734 bound_to 1114
  -12.0812   15.4080   57.6141 LP  0  0  0  0  0  0  0  0  0  0  0  0  # atno 4763 bound_to 924 
  -10.5179   14.9389   57.6628 LP  0  0  0  0  0  0  0  0  0  0  0  0  # atno 4764 bound_to 924 
  -19.8651   13.8697   63.5996 LP  0  0  0  0  0  0  0  0  0  0  0  0  # atno 4771 bound_to 1244
  -20.6377   12.5282   63.0799 LP  0  0  0  0  0  0  0  0  0  0  0  0  # atno 4772 bound_to 1244
   -7.2184   22.2925   71.7401 LP  0  0  0  0  0  0  0  0  0  0  0  0  # atno 4775 bound_to 178 
   -7.3417   23.7258   72.5127 LP  0  0  0  0  0  0  0  0  0  0  0  0  # atno 4776 bound_to 178 
   -1.7788   23.8420   72.3031 LP  0  0  0  0  0  0  0  0  0  0  0  0  # atno 4779 bound_to 171 
   -3.3146   23.7185   71.7622 LP  0  0  0  0  0  0  0  0  0  0  0  0  # atno 4780 bound_to 171 
   -7.1533   26.1956   63.1636 LP  0  0  0  0  0  0  0  0  0  0  0  0  # atno 4783 bound_to 185 
   -8.5028   26.5771   64.0002 LP  0  0  0  0  0  0  0  0  0  0  0  0  # atno 4784 bound_to 185 
   -3.4856   18.1549   72.9958 LP  0  0  0  0  0  0  0  0  0  0  0  0  # atno 4785 bound_to 346 
   -2.8132   16.7387   72.5389 LP  0  0  0  0  0  0  0  0  0  0  0  0  # atno 4786 bound_to 346 
   -3.1778   20.4491   75.1503 LP  0  0  0  0  0  0  0  0  0  0  0  0  # atno 4787 bound_to 339 
   -2.6955   21.9631   75.5269 LP  0  0  0  0  0  0  0  0  0  0  0  0  # atno 4788 bound_to 339 
   -7.0708   28.3884   65.4786 LP  0  0  0  0  0  0  0  0  0  0  0  0  # atno 4797 bound_to 154 
   -7.2782   29.9304   64.9828 LP  0  0  0  0  0  0  0  0  0  0  0  0  # atno 4798 bound_to 154 

> <Gold.Score>
     Score     S(PLP)   S(hbond)     S(cho)   S(metal)  DE(clash)   DE(tors)     intcor
     52.18     -45.33       0.00       2.47       0.00       0.00       0.31       0.07

> <Gold.PLP.Fitness>
52.1824

> <Gold.PLP.PLP>
-45.3279

> <Gold.PLP.part.hbond>
0.0000

> <Gold.PLP.part.metal>
0.0000

> <Gold.PLP.part.buried>
-6.5200

> <Gold.PLP.part.nonpolar>
-41.1320

> <Gold.PLP.part.repulsive>
0.3869

> <Gold.PLP.ligand.clash>
0.0000

> <Gold.PLP.ligand.torsion>
0.3060

> <Gold.PLP.Chemscore.Hbond>
0.0000

> <Gold.PLP.Chemscore.CHOScore>
2.4664

> <Gold.PLP.Chemscore.Metal>
0.0000

> <Gold.Chemscore.Hbonds>
donor molecule, donor type, donor heavy atom, donor atom, acceptor molecule, acceptor atom, score
      L1  C    15    29       P1  1262  1.00
      L1  C    17    30       P1  1289  0.94
      L1  C    17    30       P1  1081  0.53

> <Gold.PLP.Chemscore.Internal.Correction>
0.0673

