#       Name:                unknown
#       Creating user name   williammccorkindale
#       Creation time:       Tue Jun  7 14:55:39 2022


#       File generated by GOLD software.
#

@<TRIPOS>MOLECULE
unknown|prepared_Mpro-x0995|mol2|1|dock2
    14    14     1
SMALL
NO_CHARGES


@<TRIPOS>ATOM
      1 N1         -13.0926  16.1973  74.7869 N.pl3          1 RES1               0.0000
      2 C2         -12.9363  15.7412  73.4476 C.ar           1 RES1               0.0000
      3 C3         -11.6988  15.6005  72.8475 C.ar           1 RES1               0.0000
      4 N4         -11.6092  15.1582  71.5585 N.ar           1 RES1               0.0000
      5 C5         -12.7157  14.8563  70.8625 C.ar           1 RES1               0.0000
      6 N6         -13.9189  14.9797  71.4075 N.ar           1 RES1               0.0000
      7 C7         -14.0486  15.4193  72.6950 C.ar           1 RES1               0.0000
      8 H8         -12.2573  16.4523  75.3908 H              1 RES1               0.0000
      9 H9         -14.0266  16.3009  75.2319 H              1 RES1               0.0000
     10 H10        -10.8359  15.8478  73.4246 H              1 RES1               0.0000
     11 H11        -12.6172  14.5091  69.8461 H              1 RES1               0.0000
     12 H12        -15.0087  15.5274  73.1576 H              1 RES1               0.0000
     13 ****       -10.7113  15.0586  71.1297 LP             1 RES1               0.0000
     14 ****       -14.7334  14.7503  70.8746 LP             1 RES1               0.0000
@<TRIPOS>BOND
    1    1    2 1     
    2    2    3 ar    
    3    3    4 ar    
    4    4    5 ar    
    5    5    6 ar    
    6    6    7 ar    
    7    2    7 ar    
    8    1    8 1     
    9    1    9 1     
   10    3   10 1     
   11    5   11 1     
   12    7   12 1     
   13    4   13 1     
   14    6   14 1     
@<TRIPOS>SUBSTRUCTURE
      1 RES1           1
@<TRIPOS>SET
LONE_PAIRS      STATIC     ATOMS    <user>   **** ""
2 13 14
DONOR_HYDROGENS      STATIC     ATOMS    <user>   **** ""
2 8 9
ATOM$BLUE        STATIC     ATOMS    COLORGROUP SYSTEM
2 13 14
ATOM$RED        STATIC     ATOMS    COLORGROUP SYSTEM
2 8 9
@<TRIPOS>COMMENT
> <Gold.Version>
2022.1.0

> <Gold.Id.Protein>
6LU7|6LU7_protein|mol2

> <Gold.Protein.RotatedTorsions>
[ 3973 1471 1470 1467 ] final  -67.44 input   60.00 | X-H torsion
[ 3372  414  413  411 ] final   44.81 input   60.00 | X-H torsion
[ 4268 1114 1113 1110 ] final   92.33 input   59.99 | X-H torsion
[ 4409  924  923  921 ] final   44.40 input   59.99 | X-H torsion
[ 4183 1244 1243 1241 ] final  163.47 input   59.99 | X-H torsion
[ 3800  178  177  174 ] final -125.05 input   60.00 | X-H torsion
[ 3793  171  170  167 ] final  -69.10 input   60.00 | X-H torsion
[ 3576  185  184  181 ] final  -18.62 input   60.00 | X-H torsion
[ 3523  346  345  342 ] final   36.20 input   60.01 | X-H torsion
[ 3515  339  338  335 ] final  155.30 input   60.00 | X-H torsion
[ 3663  154  153  150 ] final   68.32 input   60.00 | X-H torsion
[ 4280 1130 1129 1126 ] final  -58.08 input   60.00 | X-H torsion

> <Gold.Protein.ActiveResidues>
 VAL20   THR21   CYS22   GLY23   THR24   THR25   THR26   LEU27   ASN28   PRO39  
 ARG40   HIS41   VAL42   CYS44   THR45   SER46   ASP48   MET49   LEU50   PRO52  
 TYR54   TYR118  ASN119  ILE136  GLY138  SER139  PHE140  LEU141  ASN142  GLY143 
 SER144  CYS145  GLY146  SER147  TYR161  HIS163  HIS164  MET165  GLU166  LEU167 
 PRO168  THR169  GLY170  VAL171  HIS172  ALA173  PHE181  PHE185  VAL186  ASP187 
 ARG188  GLN189  THR190  ALA191  GLN192  ALA193 

> <Gold.Protein.RotatedAtoms>
  -13.8739   18.0856   75.7222 H   0  0  0  0  0  0  0  0  0  0  0  0  # atno 3372 bound_to 414 
   -2.8225   22.1847   75.2773 H   0  0  0  0  0  0  0  0  0  0  0  0  # atno 3515 bound_to 339 
   -3.2266   18.3719   73.0969 H   0  0  0  0  0  0  0  0  0  0  0  0  # atno 3523 bound_to 346 
   -8.7427   25.4627   63.7942 H   0  0  0  0  0  0  0  0  0  0  0  0  # atno 3576 bound_to 185 
   -8.4007   29.6175   65.0594 H   0  0  0  0  0  0  0  0  0  0  0  0  # atno 3663 bound_to 154 
   -2.6851   24.9951   72.7170 H   0  0  0  0  0  0  0  0  0  0  0  0  # atno 3793 bound_to 171 
   -7.3786   22.3626   71.8721 H   0  0  0  0  0  0  0  0  0  0  0  0  # atno 3800 bound_to 178 
  -15.0100    9.0284   77.3749 H   0  0  0  0  0  0  0  0  0  0  0  0  # atno 3973 bound_to 1471
  -19.9939   13.3542   62.9730 H   0  0  0  0  0  0  0  0  0  0  0  0  # atno 4183 bound_to 1244
  -14.2129   15.9809   61.3471 H   0  0  0  0  0  0  0  0  0  0  0  0  # atno 4268 bound_to 1114
  -16.4062   20.1365   58.2710 H   0  0  0  0  0  0  0  0  0  0  0  0  # atno 4280 bound_to 1130
  -11.0569   15.0778   56.2641 H   0  0  0  0  0  0  0  0  0  0  0  0  # atno 4409 bound_to 924 
  -15.6663    8.1280   78.5609 LP  0  0  0  0  0  0  0  0  0  0  0  0  # atno 4696 bound_to 1471
  -15.3604    7.4631   77.1012 LP  0  0  0  0  0  0  0  0  0  0  0  0  # atno 4697 bound_to 1471
  -15.3235   17.8993   75.0066 LP  0  0  0  0  0  0  0  0  0  0  0  0  # atno 4731 bound_to 414 
  -14.9044   16.9506   76.2679 LP  0  0  0  0  0  0  0  0  0  0  0  0  # atno 4732 bound_to 414 
  -12.7957   16.2412   62.1032 LP  0  0  0  0  0  0  0  0  0  0  0  0  # atno 4733 bound_to 1114
  -12.8994   15.1205   60.9201 LP  0  0  0  0  0  0  0  0  0  0  0  0  # atno 4734 bound_to 1114
  -12.1603   15.4280   57.4078 LP  0  0  0  0  0  0  0  0  0  0  0  0  # atno 4763 bound_to 924 
  -10.6492   14.9816   57.8365 LP  0  0  0  0  0  0  0  0  0  0  0  0  # atno 4764 bound_to 924 
  -21.0205   12.3990   63.7986 LP  0  0  0  0  0  0  0  0  0  0  0  0  # atno 4771 bound_to 1244
  -20.3555   13.7042   64.5204 LP  0  0  0  0  0  0  0  0  0  0  0  0  # atno 4772 bound_to 1244
   -7.1733   23.8612   72.4722 LP  0  0  0  0  0  0  0  0  0  0  0  0  # atno 4775 bound_to 178 
   -6.0602   23.2236   71.4617 LP  0  0  0  0  0  0  0  0  0  0  0  0  # atno 4776 bound_to 178 
   -1.8485   23.7000   72.1966 LP  0  0  0  0  0  0  0  0  0  0  0  0  # atno 4779 bound_to 171 
   -3.4277   23.8628   71.8145 LP  0  0  0  0  0  0  0  0  0  0  0  0  # atno 4780 bound_to 171 
   -7.3026   25.5186   63.0386 LP  0  0  0  0  0  0  0  0  0  0  0  0  # atno 4783 bound_to 185 
   -7.9006   26.8547   63.7623 LP  0  0  0  0  0  0  0  0  0  0  0  0  # atno 4784 bound_to 185 
   -3.1516   16.8414   72.5492 LP  0  0  0  0  0  0  0  0  0  0  0  0  # atno 4785 bound_to 346 
   -1.7821   17.6383   72.9442 LP  0  0  0  0  0  0  0  0  0  0  0  0  # atno 4786 bound_to 346 
   -3.6653   21.3513   74.1623 LP  0  0  0  0  0  0  0  0  0  0  0  0  # atno 4787 bound_to 339 
   -2.9828   20.5721   75.4247 LP  0  0  0  0  0  0  0  0  0  0  0  0  # atno 4788 bound_to 339 
   -7.7382   28.2050   65.5219 LP  0  0  0  0  0  0  0  0  0  0  0  0  # atno 4797 bound_to 154 
   -6.7819   29.4724   65.1399 LP  0  0  0  0  0  0  0  0  0  0  0  0  # atno 4798 bound_to 154 

> <Gold.Score>
     Score     S(PLP)   S(hbond)     S(cho)   S(metal)  DE(clash)   DE(tors)     intcor
     27.50     -24.50       1.00       0.00       0.00       0.00       0.00       0.00

> <Gold.PLP.Fitness>
27.4960

> <Gold.PLP.PLP>
-24.4960

> <Gold.PLP.part.hbond>
-2.0000

> <Gold.PLP.part.metal>
0.0000

> <Gold.PLP.part.buried>
-6.0237

> <Gold.PLP.part.nonpolar>
-17.0464

> <Gold.PLP.part.repulsive>
0.3094

> <Gold.PLP.ligand.clash>
0.0000

> <Gold.PLP.ligand.torsion>
0.0000

> <Gold.PLP.Chemscore.Hbond>
1.0000

> <Gold.PLP.Chemscore.CHOScore>
0.0000

> <Gold.PLP.Chemscore.Metal>
0.0000

> <Gold.Chemscore.Hbonds>
donor molecule, donor type, donor heavy atom, donor atom, acceptor molecule, acceptor atom, score
      L1  H     1     9       P1  1441  1.00

> <Gold.PLP.Chemscore.Internal.Correction>
0.0000

