#       Name:                unknown
#       Creating user name   williammccorkindale
#       Creation time:       Tue Jun  7 14:55:40 2022


#       File generated by GOLD software.
#

@<TRIPOS>MOLECULE
unknown|prepared_Mpro-x0995|mol2|1|dock3
    14    14     1
SMALL
NO_CHARGES


@<TRIPOS>ATOM
      1 N1         -12.9072  16.1419  74.6733 N.pl3          1 RES1               0.0000
      2 C2         -12.7798  15.7282  73.3173 C.ar           1 RES1               0.0000
      3 C3         -13.6758  14.8656  72.7135 C.ar           1 RES1               0.0000
      4 N4         -13.5034  14.5028  71.4082 N.ar           1 RES1               0.0000
      5 C5         -12.4677  14.9770  70.6995 C.ar           1 RES1               0.0000
      6 N6         -11.5893  15.8064  71.2475 N.ar           1 RES1               0.0000
      7 C7         -11.7285  16.1921  72.5512 C.ar           1 RES1               0.0000
      8 H8         -13.7041  15.8029  75.2877 H              1 RES1               0.0000
      9 H9         -12.2295  16.7909  75.1210 H              1 RES1               0.0000
     10 H10        -14.4900  14.5041  73.3009 H              1 RES1               0.0000
     11 H11        -12.3545  14.6747  69.6703 H              1 RES1               0.0000
     12 H12        -11.0329  16.8607  73.0166 H              1 RES1               0.0000
     13 ****       -14.1547  13.8784  70.9770 LP             1 RES1               0.0000
     14 ****       -10.8229  16.1505  70.7050 LP             1 RES1               0.0000
@<TRIPOS>BOND
    1    1    2 1     
    2    2    3 ar    
    3    3    4 ar    
    4    4    5 ar    
    5    5    6 ar    
    6    6    7 ar    
    7    2    7 ar    
    8    1    8 1     
    9    1    9 1     
   10    3   10 1     
   11    5   11 1     
   12    7   12 1     
   13    4   13 1     
   14    6   14 1     
@<TRIPOS>SUBSTRUCTURE
      1 RES1           1
@<TRIPOS>SET
LONE_PAIRS      STATIC     ATOMS    <user>   **** ""
2 13 14
DONOR_HYDROGENS      STATIC     ATOMS    <user>   **** ""
2 8 9
ATOM$BLUE        STATIC     ATOMS    COLORGROUP SYSTEM
2 13 14
ATOM$RED        STATIC     ATOMS    COLORGROUP SYSTEM
2 8 9
@<TRIPOS>COMMENT
> <Gold.Version>
2022.1.0

> <Gold.Id.Protein>
6LU7|6LU7_protein|mol2

> <Gold.Protein.RotatedTorsions>
[ 3973 1471 1470 1467 ] final  118.79 input   60.00 | X-H torsion
[ 3372  414  413  411 ] final  -12.18 input   60.00 | X-H torsion
[ 4268 1114 1113 1110 ] final  -18.24 input   59.99 | X-H torsion
[ 4409  924  923  921 ] final -125.55 input   59.99 | X-H torsion
[ 4183 1244 1243 1241 ] final  123.05 input   59.99 | X-H torsion
[ 3800  178  177  174 ] final   34.64 input   60.00 | X-H torsion
[ 3793  171  170  167 ] final   89.87 input   60.00 | X-H torsion
[ 3576  185  184  181 ] final   56.44 input   60.00 | X-H torsion
[ 3523  346  345  342 ] final  170.11 input   60.01 | X-H torsion
[ 3515  339  338  335 ] final   21.32 input   60.00 | X-H torsion
[ 3663  154  153  150 ] final   71.98 input   60.00 | X-H torsion
[ 4280 1130 1129 1126 ] final  138.94 input   60.00 | X-H torsion

> <Gold.Protein.ActiveResidues>
 VAL20   THR21   CYS22   GLY23   THR24   THR25   THR26   LEU27   ASN28   PRO39  
 ARG40   HIS41   VAL42   CYS44   THR45   SER46   ASP48   MET49   LEU50   PRO52  
 TYR54   TYR118  ASN119  ILE136  GLY138  SER139  PHE140  LEU141  ASN142  GLY143 
 SER144  CYS145  GLY146  SER147  TYR161  HIS163  HIS164  MET165  GLU166  LEU167 
 PRO168  THR169  GLY170  VAL171  HIS172  ALA173  PHE181  PHE185  VAL186  ASP187 
 ARG188  GLN189  THR190  ALA191  GLN192  ALA193 

> <Gold.Protein.RotatedAtoms>
  -14.4511   18.3422   75.0906 H   0  0  0  0  0  0  0  0  0  0  0  0  # atno 3372 bound_to 414 
   -3.6715   21.1284   74.2127 H   0  0  0  0  0  0  0  0  0  0  0  0  # atno 3515 bound_to 339 
   -1.8054   17.4251   72.8681 H   0  0  0  0  0  0  0  0  0  0  0  0  # atno 3523 bound_to 346 
   -8.5101   26.5598   64.0017 H   0  0  0  0  0  0  0  0  0  0  0  0  # atno 3576 bound_to 185 
   -8.3641   29.6629   65.0458 H   0  0  0  0  0  0  0  0  0  0  0  0  # atno 3663 bound_to 154 
   -2.9488   23.4694   71.7212 H   0  0  0  0  0  0  0  0  0  0  0  0  # atno 3793 bound_to 171 
   -6.1766   23.7575   71.7910 H   0  0  0  0  0  0  0  0  0  0  0  0  # atno 3800 bound_to 178 
  -15.6937    7.4339   78.0716 H   0  0  0  0  0  0  0  0  0  0  0  0  # atno 3973 bound_to 1471
  -20.3514   12.8213   62.8929 H   0  0  0  0  0  0  0  0  0  0  0  0  # atno 4183 bound_to 1244
  -12.9296   16.3143   62.1286 H   0  0  0  0  0  0  0  0  0  0  0  0  # atno 4268 bound_to 1114
  -15.6096   18.6980   59.1225 H   0  0  0  0  0  0  0  0  0  0  0  0  # atno 4280 bound_to 1130
  -11.6663   15.2929   58.0137 H   0  0  0  0  0  0  0  0  0  0  0  0  # atno 4409 bound_to 924 
  -15.0485    8.1903   76.7834 LP  0  0  0  0  0  0  0  0  0  0  0  0  # atno 4696 bound_to 1471
  -15.2895    9.0066   78.1771 LP  0  0  0  0  0  0  0  0  0  0  0  0  # atno 4697 bound_to 1471
  -15.5411   17.2336   75.5711 LP  0  0  0  0  0  0  0  0  0  0  0  0  # atno 4731 bound_to 414 
  -14.1056   17.3579   76.3395 LP  0  0  0  0  0  0  0  0  0  0  0  0  # atno 4732 bound_to 414 
  -12.7701   15.1540   60.9988 LP  0  0  0  0  0  0  0  0  0  0  0  0  # atno 4733 bound_to 1114
  -14.2173   15.8719   61.2374 LP  0  0  0  0  0  0  0  0  0  0  0  0  # atno 4734 bound_to 1114
  -10.3890   14.8897   57.0896 LP  0  0  0  0  0  0  0  0  0  0  0  0  # atno 4763 bound_to 924 
  -11.8067   15.3032   56.3925 LP  0  0  0  0  0  0  0  0  0  0  0  0  # atno 4764 bound_to 924 
  -21.0228   12.7098   64.3710 LP  0  0  0  0  0  0  0  0  0  0  0  0  # atno 4771 bound_to 1244
  -19.9931   13.9301   64.0287 LP  0  0  0  0  0  0  0  0  0  0  0  0  # atno 4772 bound_to 1244
   -6.8531   22.3034   71.5152 LP  0  0  0  0  0  0  0  0  0  0  0  0  # atno 4775 bound_to 178 
   -7.5908   23.3766   72.5004 LP  0  0  0  0  0  0  0  0  0  0  0  0  # atno 4776 bound_to 178 
   -3.2522   24.8781   72.4772 LP  0  0  0  0  0  0  0  0  0  0  0  0  # atno 4779 bound_to 171 
   -1.7584   24.2213   72.5369 LP  0  0  0  0  0  0  0  0  0  0  0  0  # atno 4780 bound_to 171 
   -8.2818   25.0565   63.4222 LP  0  0  0  0  0  0  0  0  0  0  0  0  # atno 4783 bound_to 185 
   -7.1556   26.2118   63.1697 LP  0  0  0  0  0  0  0  0  0  0  0  0  # atno 4784 bound_to 185 
   -3.0250   18.4663   73.1443 LP  0  0  0  0  0  0  0  0  0  0  0  0  # atno 4785 bound_to 346 
   -3.3399   16.9668   72.5795 LP  0  0  0  0  0  0  0  0  0  0  0  0  # atno 4786 bound_to 346 
   -2.8698   20.7126   75.5663 LP  0  0  0  0  0  0  0  0  0  0  0  0  # atno 4787 bound_to 339 
   -2.9233   22.2745   75.0928 LP  0  0  0  0  0  0  0  0  0  0  0  0  # atno 4788 bound_to 339 
   -7.7979   28.2123   65.5182 LP  0  0  0  0  0  0  0  0  0  0  0  0  # atno 4797 bound_to 154 
   -6.7590   29.4194   65.1573 LP  0  0  0  0  0  0  0  0  0  0  0  0  # atno 4798 bound_to 154 

> <Gold.Score>
     Score     S(PLP)   S(hbond)     S(cho)   S(metal)  DE(clash)   DE(tors)     intcor
     27.15     -24.15       1.00       0.00       0.00       0.00       0.00       0.00

> <Gold.PLP.Fitness>
27.1455

> <Gold.PLP.PLP>
-24.1455

> <Gold.PLP.part.hbond>
-2.0000

> <Gold.PLP.part.metal>
0.0000

> <Gold.PLP.part.buried>
-6.0487

> <Gold.PLP.part.nonpolar>
-16.6716

> <Gold.PLP.part.repulsive>
0.2860

> <Gold.PLP.ligand.clash>
0.0000

> <Gold.PLP.ligand.torsion>
0.0000

> <Gold.PLP.Chemscore.Hbond>
1.0000

> <Gold.PLP.Chemscore.CHOScore>
0.0000

> <Gold.PLP.Chemscore.Metal>
0.0000

> <Gold.Chemscore.Hbonds>
donor molecule, donor type, donor heavy atom, donor atom, acceptor molecule, acceptor atom, score
      L1  H     1     8       P1  1441  1.00

> <Gold.PLP.Chemscore.Internal.Correction>
0.0000

