unknown|prepared_Mpro-x0540|sdf|1|dock5
  -GOLD-   5 72214353D 1   1.00000     0.00000

 39 40  0  0  0  0  0  0  0  0  1 V2000
  -10.5394   14.9433   69.2253 O   0  0  0  0  0  0  0  0  0  0  0  0
  -11.7228   14.9743   68.8471 C   0  0  0  0  0  0  0  0  0  0  0  0
  -12.1102   15.3387   67.5465 N   0  0  0  0  0  0  0  0  0  0  0  0
  -11.1314   15.7098   66.5711 C   0  0  0  0  0  0  0  0  0  0  0  0
  -11.6255   15.3831   65.2042 C   0  0  0  0  0  0  0  0  0  0  0  0
  -11.5635   13.9239   64.9090 C   0  0  0  0  0  0  0  0  0  0  0  0
  -10.9522   13.0178   65.7440 C   0  0  0  0  0  0  0  0  0  0  0  0
  -10.9433   11.6676   65.3844 C   0  0  0  0  0  0  0  0  0  0  0  0
  -11.5131   11.2460   64.2543 N   0  0  0  0  0  0  0  0  0  0  0  0
  -12.1211   12.1024   63.4114 C   0  0  0  0  0  0  0  0  0  0  0  0
  -12.1422   13.4562   63.7501 C   0  0  0  0  0  0  0  0  0  0  0  0
  -12.7099   14.6103   69.8265 N   0  0  0  0  0  0  0  0  0  0  0  0
  -12.3364   14.2319   71.1701 C   0  0  0  0  0  0  0  0  0  0  0  0
  -13.5202   13.6691   71.9006 C   0  0  0  0  0  0  0  0  0  0  0  0
  -14.5540   14.7515   71.9969 C   0  0  0  0  0  0  0  0  0  0  0  0
  -14.0342   15.8561   72.8661 C   0  0  0  0  0  0  0  0  0  0  0  0
  -12.5710   15.8710   73.0661 C   0  0  0  0  0  0  0  0  0  0  0  0
  -11.7472   15.3830   71.9215 C   0  0  0  0  0  0  0  0  0  0  0  0
  -13.1177   15.3353   67.3011 H   0  0  0  0  0  0  0  0  0  0  0  0
  -10.8343   16.7887   66.6580 H   0  0  0  0  0  0  0  0  0  0  0  0
  -10.2065   15.1023   66.7549 H   0  0  0  0  0  0  0  0  0  0  0  0
  -11.0828   15.9246   64.4285 H   0  0  0  0  0  0  0  0  0  0  0  0
  -12.7013   15.7142   65.1570 H   0  0  0  0  0  0  0  0  0  0  0  0
  -10.5024   13.3654   66.6401 H   0  0  0  0  0  0  0  0  0  0  0  0
  -10.4622   10.9484   66.0400 H   0  0  0  0  0  0  0  0  0  0  0  0
  -12.5678   11.7197   62.5109 H   0  0  0  0  0  0  0  0  0  0  0  0
  -12.6379   14.1084   63.0502 H   0  0  0  0  0  0  0  0  0  0  0  0
  -13.7202   14.6301   69.5355 H   0  0  0  0  0  0  0  0  0  0  0  0
  -11.5988   13.3772   71.0739 H   0  0  0  0  0  0  0  0  0  0  0  0
  -13.9006   12.7613   71.3901 H   0  0  0  0  0  0  0  0  0  0  0  0
  -13.2356   13.3912   72.9444 H   0  0  0  0  0  0  0  0  0  0  0  0
  -14.8508   15.0770   70.9919 H   0  0  0  0  0  0  0  0  0  0  0  0
  -15.4983   14.3029   72.4365 H   0  0  0  0  0  0  0  0  0  0  0  0
  -14.4075   16.8201   72.4123 H   0  0  0  0  0  0  0  0  0  0  0  0
  -14.5506   15.7860   73.8462 H   0  0  0  0  0  0  0  0  0  0  0  0
  -12.2794   15.3032   73.9970 H   0  0  0  0  0  0  0  0  0  0  0  0
  -12.2562   16.9224   73.2750 H   0  0  0  0  0  0  0  0  0  0  0  0
  -11.5269   16.1925   71.1939 H   0  0  0  0  0  0  0  0  0  0  0  0
  -10.7659   15.0559   72.3246 H   0  0  0  0  0  0  0  0  0  0  0  0
  1  2  2  0  0  0  0
  2  3  1  0  0  0  0
  3  4  1  0  0  0  0
  4  5  1  0  0  0  0
  5  6  1  0  0  0  0
  6  7  2  0  0  0  0
  7  8  1  0  0  0  0
  8  9  2  0  0  0  0
  9 10  1  0  0  0  0
 10 11  2  0  0  0  0
  2 12  1  0  0  0  0
 12 13  1  0  0  0  0
 13 14  1  0  0  0  0
 14 15  1  0  0  0  0
 15 16  1  0  0  0  0
 16 17  1  0  0  0  0
 17 18  1  0  0  0  0
  6 11  1  0  0  0  0
 18 13  1  0  0  0  0
  3 19  1  0  0  0  0
  4 20  1  0  0  0  0
  4 21  1  0  0  0  0
  5 22  1  0  0  0  0
  5 23  1  0  0  0  0
  7 24  1  0  0  0  0
  8 25  1  0  0  0  0
 10 26  1  0  0  0  0
 11 27  1  0  0  0  0
 12 28  1  0  0  0  0
 13 29  1  0  0  0  0
 14 30  1  0  0  0  0
 14 31  1  0  0  0  0
 15 32  1  0  0  0  0
 15 33  1  0  0  0  0
 16 34  1  0  0  0  0
 16 35  1  0  0  0  0
 17 36  1  0  0  0  0
 17 37  1  0  0  0  0
 18 38  1  0  0  0  0
 18 39  1  0  0  0  0
M  END
> <Gold.Version>
2022.1.0

> <Gold.Id.Protein>
6LU7|6LU7_protein|mol2

> <Gold.PLP.Fitness>
56.4457

> <Gold.PLP.PLP>
-49.5158

> <Gold.PLP.part.hbond>
-1.9834

> <Gold.PLP.part.metal>
0.0000

> <Gold.PLP.part.buried>
-5.5261

> <Gold.PLP.part.nonpolar>
-44.5408

> <Gold.PLP.part.repulsive>
0.3336

> <Gold.PLP.ligand.clash>
0.0000

> <Gold.PLP.ligand.torsion>
0.3766

> <Gold.PLP.Chemscore.Hbond>
1.5486

> <Gold.PLP.Chemscore.CHOScore>
0.9988

> <Gold.PLP.Chemscore.Metal>
0.0000

> <Gold.Chemscore.Hbonds>
donor molecule, donor type, donor heavy atom, donor atom, acceptor molecule, acceptor atom, score
      L1  H     3    19       P1  1266  0.64
      L1  H    12    28       P1  1266  0.91
      L1  C    10    26       P1  1081  1.00

> <Gold.PLP.Chemscore.Internal.Correction>
0.0413

> <Gold.Protein.RotatedTorsions>
[ 3973 1471 1470 1467 ] final  -78.41 input   60.00 | X-H torsion
[ 3372  414  413  411 ] final   81.14 input   60.00 | X-H torsion
[ 4268 1114 1113 1110 ] final  121.74 input   59.99 | X-H torsion
[ 4409  924  923  921 ] final  107.22 input   59.99 | X-H torsion
[ 4183 1244 1243 1241 ] final   63.64 input   59.99 | X-H torsion
[ 3800  178  177  174 ] final  -27.82 input   60.00 | X-H torsion
[ 3793  171  170  167 ] final  -14.72 input   60.00 | X-H torsion
[ 3576  185  184  181 ] final -171.86 input   60.00 | X-H torsion
[ 3523  346  345  342 ] final  -80.50 input   60.01 | X-H torsion
[ 3515  339  338  335 ] final  178.12 input   60.00 | X-H torsion
[ 3663  154  153  150 ] final   72.22 input   60.00 | X-H torsion
[ 4280 1130 1129 1126 ] final  -31.05 input   60.00 | X-H torsion

> <Gold.Protein.ActiveResidues>
 VAL20   THR21   CYS22   GLY23   THR24   THR25   THR26   LEU27   ASN28   PRO39  
 ARG40   HIS41   VAL42   CYS44   THR45   SER46   ASP48   MET49   LEU50   PRO52  
 TYR54   TYR118  ASN119  ILE136  GLY138  SER139  PHE140  LEU141  ASN142  GLY143 
 SER144  CYS145  GLY146  SER147  TYR161  HIS163  HIS164  MET165  GLU166  LEU167 
 PRO168  THR169  GLY170  VAL171  HIS172  ALA173  PHE181  PHE185  VAL186  ASP187 
 ARG188  GLN189  THR190  ALA191  GLN192  ALA193 

> <Gold.Protein.RotatedAtoms>
  -13.8920   17.6781   76.1398 H   0  0  0  0  0  0  0  0  0  0  0  0  # atno 3372 bound_to 414 
   -2.6970   21.9477   75.5329 H   0  0  0  0  0  0  0  0  0  0  0  0  # atno 3515 bound_to 339 
   -3.1958   16.8717   72.5591 H   0  0  0  0  0  0  0  0  0  0  0  0  # atno 3523 bound_to 346 
   -7.1504   26.0284   63.1142 H   0  0  0  0  0  0  0  0  0  0  0  0  # atno 3576 bound_to 185 
   -8.3616   29.6658   65.0449 H   0  0  0  0  0  0  0  0  0  0  0  0  # atno 3663 bound_to 154 
   -3.4079   24.7342   72.3408 H   0  0  0  0  0  0  0  0  0  0  0  0  # atno 3793 bound_to 171 
   -6.1758   22.8841   71.3671 H   0  0  0  0  0  0  0  0  0  0  0  0  # atno 3800 bound_to 178 
  -15.0495    9.0860   77.5398 H   0  0  0  0  0  0  0  0  0  0  0  0  # atno 3973 bound_to 1471
  -20.9114   12.3824   63.4886 H   0  0  0  0  0  0  0  0  0  0  0  0  # atno 4183 bound_to 1244
  -14.1250   15.6399   61.0280 H   0  0  0  0  0  0  0  0  0  0  0  0  # atno 4268 bound_to 1114
  -16.2902   20.3625   58.6274 H   0  0  0  0  0  0  0  0  0  0  0  0  # atno 4280 bound_to 1130
  -10.4117   14.8968   56.9733 H   0  0  0  0  0  0  0  0  0  0  0  0  # atno 4409 bound_to 924 
  -15.6989    7.9567   78.5150 LP  0  0  0  0  0  0  0  0  0  0  0  0  # atno 4696 bound_to 1471
  -15.2879    7.5764   76.9811 LP  0  0  0  0  0  0  0  0  0  0  0  0  # atno 4697 bound_to 1471
  -14.8472   18.2388   74.9476 LP  0  0  0  0  0  0  0  0  0  0  0  0  # atno 4731 bound_to 414 
  -15.3625   17.0215   75.9063 LP  0  0  0  0  0  0  0  0  0  0  0  0  # atno 4732 bound_to 414 
  -13.2356   16.4258   62.1413 LP  0  0  0  0  0  0  0  0  0  0  0  0  # atno 4733 bound_to 1114
  -12.5479   15.2794   61.2034 LP  0  0  0  0  0  0  0  0  0  0  0  0  # atno 4734 bound_to 1114
  -11.8956   15.3313   56.4663 LP  0  0  0  0  0  0  0  0  0  0  0  0  # atno 4763 bound_to 924 
  -11.5636   15.2606   58.0636 LP  0  0  0  0  0  0  0  0  0  0  0  0  # atno 4764 bound_to 924 
  -20.5670   13.4802   64.6393 LP  0  0  0  0  0  0  0  0  0  0  0  0  # atno 4771 bound_to 1244
  -19.8850   13.6017   63.1605 LP  0  0  0  0  0  0  0  0  0  0  0  0  # atno 4772 bound_to 1244
   -7.5900   22.5603   72.1041 LP  0  0  0  0  0  0  0  0  0  0  0  0  # atno 4775 bound_to 178 
   -6.8547   23.9993   72.3385 LP  0  0  0  0  0  0  0  0  0  0  0  0  # atno 4776 bound_to 178 
   -1.8367   24.4371   72.6426 LP  0  0  0  0  0  0  0  0  0  0  0  0  # atno 4779 bound_to 171 
   -2.7116   23.3884   71.7474 LP  0  0  0  0  0  0  0  0  0  0  0  0  # atno 4780 bound_to 171 
   -8.3720   26.6872   63.9637 LP  0  0  0  0  0  0  0  0  0  0  0  0  # atno 4783 bound_to 185 
   -8.4348   25.1164   63.5221 LP  0  0  0  0  0  0  0  0  0  0  0  0  # atno 4784 bound_to 185 
   -1.7811   17.5873   72.9259 LP  0  0  0  0  0  0  0  0  0  0  0  0  # atno 4785 bound_to 346 
   -3.1837   18.4032   73.1090 LP  0  0  0  0  0  0  0  0  0  0  0  0  # atno 4786 bound_to 346 
   -3.5885   21.7152   74.1916 LP  0  0  0  0  0  0  0  0  0  0  0  0  # atno 4787 bound_to 339 
   -3.1861   20.4468   75.1380 LP  0  0  0  0  0  0  0  0  0  0  0  0  # atno 4788 bound_to 339 
   -7.8018   28.2129   65.5179 LP  0  0  0  0  0  0  0  0  0  0  0  0  # atno 4797 bound_to 154 
   -6.7576   29.4158   65.1585 LP  0  0  0  0  0  0  0  0  0  0  0  0  # atno 4798 bound_to 154 

$$$$
