#       Name:                /Users/williammccorkindale/ml_physics/smi2wyck/notebooks/docking/mpro_fragments/prepared_Mpro-x0967.mol2
#       Creating user name   williammccorkindale
#       Creation time:       Tue Jun  7 14:55:40 2022


#       File generated by GOLD software.
#

@<TRIPOS>MOLECULE
/Users/williammccorkindale/ml_physics/smi2wyck/notebooks/docking/mpro_fragments/prepared_Mpro-x0967.mol2
    41    41     1
SMALL
NO_CHARGES


@<TRIPOS>ATOM
      1 C1          -1.4579  -4.2192   0.4416 C.3            1 RES1               0.0000
      2 C2          -0.8686  -2.9960  -0.1868 C.2            1 RES1               0.0000
      3 O3           0.0471  -3.1090  -1.0362 O.2            1 RES1               0.0000
      4 N4          -1.3186  -1.6774   0.1735 N.am           1 RES1               0.0000
      5 C5          -0.5793  -0.6001  -0.5505 C.3            1 RES1               0.0000
      6 C6           0.4801  -0.3519   0.5831 C.3            1 RES1               0.0000
      7 C7           1.6463   0.3179   0.2144 C.ar           1 RES1               0.0000
      8 C8           2.0106   1.5037  -0.3669 C.ar           1 RES1               0.0000
      9 C9           3.0981   2.0912  -0.6104 C.ar           1 RES1               0.0000
     10 C10          4.3956   1.3932  -0.2020 C.ar           1 RES1               0.0000
     11 C11          4.1071   0.2046   0.3690 C.ar           1 RES1               0.0000
     12 C12          2.9471  -0.3985   0.6060 C.ar           1 RES1               0.0000
     13 O13          5.5297   2.0660  -0.3603 O.3            1 RES1               0.0000
     14 C14         -1.5100   0.5597  -0.6383 C.2            1 RES1               0.0000
     15 O15         -1.3335   1.7801  -0.7275 O.2            1 RES1               0.0000
     16 N16         -2.9140   0.1493  -0.5924 N.am           1 RES1               0.0000
     17 C17         -3.7549   0.9993  -0.6857 C.3            1 RES1               0.0000
     18 C18         -3.6553   2.5447   0.1707 C.1            1 RES1               0.0000
     19 C19         -3.5560   3.9940   0.9574 C.1            1 RES1               0.0000
     20 Br20        -3.4491   5.5638   1.8323 Br             1 RES1               0.0000
     21 H21         -1.2643  -4.1716   1.5208 H              1 RES1               0.0000
     22 H22         -2.5464  -4.2879   0.2547 H              1 RES1               0.0000
     23 H23         -0.9340  -5.1229   0.0188 H              1 RES1               0.0000
     24 H24         -2.0010  -1.4743   0.8348 H              1 RES1               0.0000
     25 H25         -0.1406  -0.8486  -1.4731 H              1 RES1               0.0000
     26 H26          0.5622  -1.2246   1.1874 H              1 RES1               0.0000
     27 H27         -0.2041   0.3425   1.2892 H              1 RES1               0.0000
     28 H28          1.1179   1.9741  -0.8861 H              1 RES1               0.0000
     29 H29          3.3706   3.0535  -1.0510 H              1 RES1               0.0000
     30 H30          5.0441  -0.3939   0.6612 H              1 RES1               0.0000
     31 H31          2.7151  -1.3527   1.0445 H              1 RES1               0.0000
     32 H32          6.4574   1.7668  -0.2313 H              1 RES1               0.0000
     33 H33         -3.1600  -0.8506  -0.5492 H              1 RES1               0.0000
     34 H34         -3.9535   1.7390  -1.6375 H              1 RES1               0.0000
     35 H35         -4.9279   1.0357  -0.3735 H              1 RES1               0.0000
     36 ****         0.3823  -4.0156  -1.2925 LP             1 RES1               0.0000
     37 ****         0.4421  -2.2925  -1.4572 LP             1 RES1               0.0000
     38 ****         5.4371   2.8521   0.2508 LP             1 RES1               0.0000
     39 ****         5.5010   2.3771  -1.3103 LP             1 RES1               0.0000
     40 ****        -0.4050   2.1505  -0.7522 LP             1 RES1               0.0000
     41 ****        -2.1193   2.3968  -0.7750 LP             1 RES1               0.0000
@<TRIPOS>BOND
    1    1    2 1     
    2    2    3 2     
    3    2    4 am    
    4    4    5 1     
    5    5    6 1     
    6    6    7 1     
    7    7    8 ar    
    8    8    9 ar    
    9    9   10 ar    
   10   10   11 ar    
   11   11   12 ar    
   12   10   13 1     
   13    5   14 1     
   14   14   15 2     
   15   14   16 am    
   16   16   17 1     
   17   17   18 1     
   18   18   19 3     
   19   19   20 1     
   20   12    7 ar    
   21    1   21 1     
   22    1   22 1     
   23    1   23 1     
   24    4   24 1     
   25    5   25 1     
   26    6   26 1     
   27    6   27 1     
   28    8   28 1     
   29    9   29 1     
   30   11   30 1     
   31   12   31 1     
   32   13   32 1     
   33   16   33 1     
   34   17   34 1     
   35   17   35 1     
   36    3   36 1     
   37    3   37 1     
   38   13   38 1     
   39   13   39 1     
   40   15   40 1     
   41   15   41 1     
@<TRIPOS>SUBSTRUCTURE
      1 RES1           1
@<TRIPOS>SET
LONE_PAIRS      STATIC     ATOMS    <user>   **** ""
6 36 37 38 39 40 41
DONOR_HYDROGENS      STATIC     ATOMS    <user>   **** ""
3 24 32 33
ATOM$BLUE        STATIC     ATOMS    COLORGROUP SYSTEM
6 36 37 38 39 40 41
ATOM$RED        STATIC     ATOMS    COLORGROUP SYSTEM
3 24 32 33
