#       Name:                unknown
#       Creating user name   williammccorkindale
#       Creation time:       Tue Jun  7 14:55:37 2022


#       File generated by GOLD software.
#

@<TRIPOS>MOLECULE
unknown|prepared_Mpro-x0305|mol2|1|dock3
    22    22     1
SMALL
NO_CHARGES


@<TRIPOS>ATOM
      1 C1         -13.7630  14.7587  72.0354 C.3            1 RES1               0.0000
      2 C2         -12.3610  15.2293  72.3178 C.3            1 RES1               0.0000
      3 N3         -11.3774  14.7020  71.4337 N.pl3          1 RES1               0.0000
      4 C4         -11.1949  15.1818  70.1123 C.ar           1 RES1               0.0000
      5 C5         -10.8251  16.4801  69.8486 C.ar           1 RES1               0.0000
      6 C6         -10.6407  16.9734  68.5762 C.ar           1 RES1               0.0000
      7 C7         -10.8341  16.1308  67.5080 C.ar           1 RES1               0.0000
      8 C8         -10.6639  16.5613  66.1512 C.1            1 RES1               0.0000
      9 N9         -10.5086  16.9075  65.0509 N.1            1 RES1               0.0000
     10 C10        -11.2015  14.8406  67.7675 C.ar           1 RES1               0.0000
     11 N11        -11.3773  14.3780  69.0356 N.ar           1 RES1               0.0000
     12 H12        -14.0073  14.7143  70.9604 H              1 RES1               0.0000
     13 H13        -13.9687  13.7549  72.4586 H              1 RES1               0.0000
     14 H14        -14.4484  15.4586  72.5882 H              1 RES1               0.0000
     15 H15        -12.1347  14.9928  73.3651 H              1 RES1               0.0000
     16 H16        -12.3760  16.3476  72.1906 H              1 RES1               0.0000
     17 H17        -10.7599  13.9315  71.7590 H              1 RES1               0.0000
     18 H18        -10.6649  17.1706  70.6786 H              1 RES1               0.0000
     19 H19        -10.3498  18.0006  68.4113 H              1 RES1               0.0000
     20 H20        -11.3711  14.1230  66.9848 H              1 RES1               0.0000
     21 ****       -10.3751  17.2050  64.1055 LP             1 RES1               0.0000
     22 ****       -11.6467  13.4253  69.1760 LP             1 RES1               0.0000
@<TRIPOS>BOND
    1    1    2 1     
    2    2    3 1     
    3    3    4 1     
    4    4    5 ar    
    5    5    6 ar    
    6    6    7 ar    
    7    7    8 1     
    8    8    9 3     
    9    7   10 ar    
   10   10   11 ar    
   11    4   11 ar    
   12    1   12 1     
   13    1   13 1     
   14    1   14 1     
   15    2   15 1     
   16    2   16 1     
   17    3   17 1     
   18    5   18 1     
   19    6   19 1     
   20   10   20 1     
   21    9   21 1     
   22   11   22 1     
@<TRIPOS>SUBSTRUCTURE
      1 RES1           1
@<TRIPOS>SET
LONE_PAIRS      STATIC     ATOMS    <user>   **** ""
2 21 22
DONOR_HYDROGENS      STATIC     ATOMS    <user>   **** ""
1 17
ATOM$BLUE        STATIC     ATOMS    COLORGROUP SYSTEM
2 21 22
ATOM$RED        STATIC     ATOMS    COLORGROUP SYSTEM
1 17
@<TRIPOS>COMMENT
> <Gold.Version>
2022.1.0

> <Gold.Id.Protein>
6LU7|6LU7_protein|mol2

> <Gold.Protein.RotatedTorsions>
[ 3973 1471 1470 1467 ] final -150.62 input   60.00 | X-H torsion
[ 3372  414  413  411 ] final  114.10 input   60.00 | X-H torsion
[ 4268 1114 1113 1110 ] final  -37.65 input   59.99 | X-H torsion
[ 4409  924  923  921 ] final -165.16 input   59.99 | X-H torsion
[ 4183 1244 1243 1241 ] final   32.89 input   59.99 | X-H torsion
[ 3800  178  177  174 ] final  179.61 input   60.00 | X-H torsion
[ 3793  171  170  167 ] final  122.00 input   60.00 | X-H torsion
[ 3576  185  184  181 ] final  163.68 input   60.00 | X-H torsion
[ 3523  346  345  342 ] final   97.48 input   60.01 | X-H torsion
[ 3515  339  338  335 ] final   -1.72 input   60.00 | X-H torsion
[ 3663  154  153  150 ] final  -78.33 input   60.00 | X-H torsion
[ 4280 1130 1129 1126 ] final  174.73 input   60.00 | X-H torsion

> <Gold.Protein.ActiveResidues>
 VAL20   THR21   CYS22   GLY23   THR24   THR25   THR26   LEU27   ASN28   PRO39  
 ARG40   HIS41   VAL42   CYS44   THR45   SER46   ASP48   MET49   LEU50   PRO52  
 TYR54   TYR118  ASN119  ILE136  GLY138  SER139  PHE140  LEU141  ASN142  GLY143 
 SER144  CYS145  GLY146  SER147  TYR161  HIS163  HIS164  MET165  GLU166  LEU167 
 PRO168  THR169  GLY170  VAL171  HIS172  ALA173  PHE181  PHE185  VAL186  ASP187 
 ARG188  GLN189  THR190  ALA191  GLN192  ALA193 

> <Gold.Protein.RotatedAtoms>
  -14.1827   17.2935   76.3627 H   0  0  0  0  0  0  0  0  0  0  0  0  # atno 3372 bound_to 414 
   -3.6185   20.7973   74.3783 H   0  0  0  0  0  0  0  0  0  0  0  0  # atno 3515 bound_to 339 
   -2.2756   18.3812   73.1752 H   0  0  0  0  0  0  0  0  0  0  0  0  # atno 3523 bound_to 346 
   -7.2103   26.3938   63.2567 H   0  0  0  0  0  0  0  0  0  0  0  0  # atno 3576 bound_to 185 
   -7.3099   28.2681   65.5138 H   0  0  0  0  0  0  0  0  0  0  0  0  # atno 3663 bound_to 154 
   -2.4482   23.3793   71.8193 H   0  0  0  0  0  0  0  0  0  0  0  0  # atno 3793 bound_to 171 
   -7.6853   23.0019   72.3753 H   0  0  0  0  0  0  0  0  0  0  0  0  # atno 3800 bound_to 178 
  -15.4779    8.6839   78.4737 H   0  0  0  0  0  0  0  0  0  0  0  0  # atno 3973 bound_to 1471
  -21.0474   12.4552   63.9603 H   0  0  0  0  0  0  0  0  0  0  0  0  # atno 4183 bound_to 1244
  -12.6751   16.1472   62.0448 H   0  0  0  0  0  0  0  0  0  0  0  0  # atno 4268 bound_to 1114
  -15.8374   18.5946   58.6043 H   0  0  0  0  0  0  0  0  0  0  0  0  # atno 4280 bound_to 1130
  -11.0612   15.1121   58.0741 H   0  0  0  0  0  0  0  0  0  0  0  0  # atno 4409 bound_to 924 
  -15.5845    7.2980   77.6275 LP  0  0  0  0  0  0  0  0  0  0  0  0  # atno 4696 bound_to 1471
  -14.9709    8.6400   76.9280 LP  0  0  0  0  0  0  0  0  0  0  0  0  # atno 4697 bound_to 1471
  -14.3593   18.3492   75.1370 LP  0  0  0  0  0  0  0  0  0  0  0  0  # atno 4731 bound_to 414 
  -15.5577   17.2984   75.4925 LP  0  0  0  0  0  0  0  0  0  0  0  0  # atno 4732 bound_to 414 
  -13.0481   15.1044   60.8526 LP  0  0  0  0  0  0  0  0  0  0  0  0  # atno 4733 bound_to 1114
  -14.1956   16.0899   61.4680 LP  0  0  0  0  0  0  0  0  0  0  0  0  # atno 4734 bound_to 1114
  -10.6460   14.9564   56.5084 LP  0  0  0  0  0  0  0  0  0  0  0  0  # atno 4763 bound_to 924 
  -12.1591   15.4186   56.9128 LP  0  0  0  0  0  0  0  0  0  0  0  0  # atno 4764 bound_to 924 
  -20.2479   13.7960   64.4196 LP  0  0  0  0  0  0  0  0  0  0  0  0  # atno 4771 bound_to 1244
  -20.0671   13.2126   62.9051 LP  0  0  0  0  0  0  0  0  0  0  0  0  # atno 4772 bound_to 1244
   -6.4159   23.9651   72.0454 LP  0  0  0  0  0  0  0  0  0  0  0  0  # atno 4775 bound_to 178 
   -6.5087   22.4759   71.3818 LP  0  0  0  0  0  0  0  0  0  0  0  0  # atno 4776 bound_to 178 
   -3.5270   24.5396   72.1905 LP  0  0  0  0  0  0  0  0  0  0  0  0  # atno 4779 bound_to 171 
   -1.9879   24.6506   72.7248 LP  0  0  0  0  0  0  0  0  0  0  0  0  # atno 4780 bound_to 171 
   -8.6455   26.4022   64.0236 LP  0  0  0  0  0  0  0  0  0  0  0  0  # atno 4783 bound_to 185 
   -8.1011   25.0335   63.3186 LP  0  0  0  0  0  0  0  0  0  0  0  0  # atno 4784 bound_to 185 
   -3.6611   17.6200   72.7894 LP  0  0  0  0  0  0  0  0  0  0  0  0  # atno 4785 bound_to 346 
   -2.2303   16.8503   72.6251 LP  0  0  0  0  0  0  0  0  0  0  0  0  # atno 4786 bound_to 346 
   -2.7232   21.0247   75.7179 LP  0  0  0  0  0  0  0  0  0  0  0  0  # atno 4787 bound_to 339 
   -3.1234   22.2960   74.7744 LP  0  0  0  0  0  0  0  0  0  0  0  0  # atno 4788 bound_to 339 
   -7.0461   29.7993   65.0298 LP  0  0  0  0  0  0  0  0  0  0  0  0  # atno 4797 bound_to 154 
   -8.5725   29.2370   65.1744 LP  0  0  0  0  0  0  0  0  0  0  0  0  # atno 4798 bound_to 154 

> <Gold.Score>
     Score     S(PLP)   S(hbond)     S(cho)   S(metal)  DE(clash)   DE(tors)     intcor
     31.77     -27.32       1.95       0.00       0.00       0.00       0.70       0.00

> <Gold.PLP.Fitness>
31.7724

> <Gold.PLP.PLP>
-27.3164

> <Gold.PLP.part.hbond>
-2.0000

> <Gold.PLP.part.metal>
0.0000

> <Gold.PLP.part.buried>
-5.0867

> <Gold.PLP.part.nonpolar>
-20.9322

> <Gold.PLP.part.repulsive>
0.1898

> <Gold.PLP.ligand.clash>
0.0000

> <Gold.PLP.ligand.torsion>
0.6990

> <Gold.PLP.Chemscore.Hbond>
1.9513

> <Gold.PLP.Chemscore.CHOScore>
0.0000

> <Gold.PLP.Chemscore.Metal>
0.0000

> <Gold.Chemscore.Hbonds>
donor molecule, donor type, donor heavy atom, donor atom, acceptor molecule, acceptor atom, score
      L1  H     3    17       P1  1464  0.99
      P1  H  1105  4261       L1     9  0.96

> <Gold.PLP.Chemscore.Internal.Correction>
0.0002

