#       Name:                unknown
#       Creating user name   williammccorkindale
#       Creation time:       Tue Jun  7 14:55:40 2022


#       File generated by GOLD software.
#

@<TRIPOS>MOLECULE
unknown|prepared_Mpro-x1093|mol2|1|dock5
    41    43     1
SMALL
NO_CHARGES


@<TRIPOS>ATOM
      1 C1         -12.9020  16.1606  73.9089 C.3            1 RES1               0.0000
      2 N2         -12.4900  15.2416  72.9002 N.3            1 RES1               0.0000
      3 C3         -13.4588  14.2634  72.5185 C.3            1 RES1               0.0000
      4 C4         -12.7757  13.2662  71.6060 C.3            1 RES1               0.0000
      5 N5         -12.2799  13.9500  70.4348 N.am           1 RES1               0.0000
      6 C6         -12.1637  15.3896  70.4577 C.3            1 RES1               0.0000
      7 C7         -11.7250  15.8089  71.8392 C.3            1 RES1               0.0000
      8 C8         -11.9249  13.1797  69.3013 C.2            1 RES1               0.0000
      9 O9         -12.0583  11.9351  69.3627 O.2            1 RES1               0.0000
     10 C10        -11.4136  13.7999  68.0778 C.3            1 RES1               0.0000
     11 C11        -10.7899  12.8264  67.1565 C.2            1 RES1               0.0000
     12 C12         -9.6319  12.1209  67.3911 C.2            1 RES1               0.0000
     13 N13         -9.4170  11.3584  66.3143 N.pl3          1 RES1               0.0000
     14 C14        -10.3859  11.5509  65.4128 C.ar           1 RES1               0.0000
     15 N15        -10.6552  11.0511  64.1807 N.ar           1 RES1               0.0000
     16 C16        -11.7083  11.3955  63.4400 C.ar           1 RES1               0.0000
     17 C17        -12.6002  12.3220  63.9390 C.ar           1 RES1               0.0000
     18 C18        -12.4005  12.8811  65.1873 C.ar           1 RES1               0.0000
     19 C19        -11.2916  12.4847  65.9073 C.ar           1 RES1               0.0000
     20 H20        -13.3679  15.6464  74.7708 H              1 RES1               0.0000
     21 H21        -11.9755  16.7229  74.2234 H              1 RES1               0.0000
     22 H22        -13.5888  16.9361  73.5111 H              1 RES1               0.0000
     23 H23        -13.7701  13.7400  73.4668 H              1 RES1               0.0000
     24 H24        -14.3688  14.6953  72.0320 H              1 RES1               0.0000
     25 H25        -13.4367  12.4120  71.3582 H              1 RES1               0.0000
     26 H26        -11.8629  12.9231  72.1693 H              1 RES1               0.0000
     27 H27        -11.3432  15.7308  69.7604 H              1 RES1               0.0000
     28 H28        -13.1020  15.8997  70.1840 H              1 RES1               0.0000
     29 H29        -10.6691  15.4186  71.9537 H              1 RES1               0.0000
     30 H30        -11.6224  16.9154  71.9058 H              1 RES1               0.0000
     31 H31        -10.6738  14.5819  68.3684 H              1 RES1               0.0000
     32 H32        -12.2405  14.3150  67.5358 H              1 RES1               0.0000
     33 H33         -9.0066  12.1791  68.2969 H              1 RES1               0.0000
     34 H34         -8.6150  10.7150  66.2003 H              1 RES1               0.0000
     35 H35        -11.9134  10.9923  62.4571 H              1 RES1               0.0000
     36 H36        -13.4672  12.6302  63.3740 H              1 RES1               0.0000
     37 H37        -13.0456  13.6058  65.6450 H              1 RES1               0.0000
     38 ****       -11.8140  14.6796  73.3769 LP             1 RES1               0.0000
     39 ****       -12.4080  11.5103  70.1977 LP             1 RES1               0.0000
     40 ****       -11.8151  11.3667  68.5766 LP             1 RES1               0.0000
     41 ****       -10.0198  10.3780  63.8022 LP             1 RES1               0.0000
@<TRIPOS>BOND
    1    1    2 1     
    2    2    3 1     
    3    3    4 1     
    4    4    5 1     
    5    5    6 1     
    6    6    7 1     
    7    5    8 am    
    8    8    9 2     
    9    8   10 1     
   10   10   11 1     
   11   11   12 2     
   12   12   13 1     
   13   13   14 1     
   14   14   15 ar    
   15   15   16 ar    
   16   16   17 ar    
   17   17   18 ar    
   18   18   19 ar    
   19    7    2 1     
   20   19   11 1     
   21   19   14 ar    
   22    1   20 1     
   23    1   21 1     
   24    1   22 1     
   25    3   23 1     
   26    3   24 1     
   27    4   25 1     
   28    4   26 1     
   29    6   27 1     
   30    6   28 1     
   31    7   29 1     
   32    7   30 1     
   33   10   31 1     
   34   10   32 1     
   35   12   33 1     
   36   13   34 1     
   37   16   35 1     
   38   17   36 1     
   39   18   37 1     
   40    2   38 1     
   41    9   39 1     
   42    9   40 1     
   43   15   41 1     
@<TRIPOS>SUBSTRUCTURE
      1 RES1           1
@<TRIPOS>SET
LONE_PAIRS      STATIC     ATOMS    <user>   **** ""
4 38 39 40 41
DONOR_HYDROGENS      STATIC     ATOMS    <user>   **** ""
1 34
ATOM$BLUE        STATIC     ATOMS    COLORGROUP SYSTEM
4 38 39 40 41
ATOM$RED        STATIC     ATOMS    COLORGROUP SYSTEM
1 34
@<TRIPOS>COMMENT
> <Gold.Version>
2022.1.0

> <Gold.Id.Protein>
6LU7|6LU7_protein|mol2

> <Gold.Protein.RotatedTorsions>
[ 3973 1471 1470 1467 ] final  -80.49 input   60.00 | X-H torsion
[ 3372  414  413  411 ] final   26.84 input   60.00 | X-H torsion
[ 4268 1114 1113 1110 ] final  158.72 input   59.99 | X-H torsion
[ 4409  924  923  921 ] final -125.05 input   59.99 | X-H torsion
[ 4183 1244 1243 1241 ] final  -28.65 input   59.99 | X-H torsion
[ 3800  178  177  174 ] final  -49.87 input   60.00 | X-H torsion
[ 3793  171  170  167 ] final  137.16 input   60.00 | X-H torsion
[ 3576  185  184  181 ] final   34.46 input   60.00 | X-H torsion
[ 3523  346  345  342 ] final   -2.69 input   60.01 | X-H torsion
[ 3515  339  338  335 ] final -153.31 input   60.00 | X-H torsion
[ 3663  154  153  150 ] final  -33.19 input   60.00 | X-H torsion
[ 4280 1130 1129 1126 ] final  117.91 input   60.00 | X-H torsion

> <Gold.Protein.ActiveResidues>
 VAL20   THR21   CYS22   GLY23   THR24   THR25   THR26   LEU27   ASN28   PRO39  
 ARG40   HIS41   VAL42   CYS44   THR45   SER46   ASP48   MET49   LEU50   PRO52  
 TYR54   TYR118  ASN119  ILE136  GLY138  SER139  PHE140  LEU141  ASN142  GLY143 
 SER144  CYS145  GLY146  SER147  TYR161  HIS163  HIS164  MET165  GLU166  LEU167 
 PRO168  THR169  GLY170  VAL171  HIS172  ALA173  PHE181  PHE185  VAL186  ASP187 
 ARG188  GLN189  THR190  ALA191  GLN192  ALA193 

> <Gold.Protein.RotatedAtoms>
  -13.9883   18.2320   75.4964 H   0  0  0  0  0  0  0  0  0  0  0  0  # atno 3372 bound_to 414 
   -2.6427   21.5298   75.7221 H   0  0  0  0  0  0  0  0  0  0  0  0  # atno 3515 bound_to 339 
   -3.6076   17.9179   72.9034 H   0  0  0  0  0  0  0  0  0  0  0  0  # atno 3523 bound_to 346 
   -8.7134   26.2672   64.0219 H   0  0  0  0  0  0  0  0  0  0  0  0  # atno 3576 bound_to 185 
   -8.0279   28.2847   65.4923 H   0  0  0  0  0  0  0  0  0  0  0  0  # atno 3663 bound_to 154 
   -2.2246   23.4241   71.9141 H   0  0  0  0  0  0  0  0  0  0  0  0  # atno 3793 bound_to 171 
   -6.3851   22.5936   71.3581 H   0  0  0  0  0  0  0  0  0  0  0  0  # atno 3800 bound_to 178 
  -15.0583    9.0933   77.5718 H   0  0  0  0  0  0  0  0  0  0  0  0  # atno 3973 bound_to 1471
  -20.8293   13.1150   64.6196 H   0  0  0  0  0  0  0  0  0  0  0  0  # atno 4183 bound_to 1244
  -13.7227   15.2732   60.7906 H   0  0  0  0  0  0  0  0  0  0  0  0  # atno 4268 bound_to 1114
  -15.5368   18.9075   59.3824 H   0  0  0  0  0  0  0  0  0  0  0  0  # atno 4280 bound_to 1130
  -11.6733   15.2949   58.0102 H   0  0  0  0  0  0  0  0  0  0  0  0  # atno 4409 bound_to 924 
  -15.7037    7.9251   78.5028 LP  0  0  0  0  0  0  0  0  0  0  0  0  # atno 4696 bound_to 1471
  -15.2744    7.6006   76.9611 LP  0  0  0  0  0  0  0  0  0  0  0  0  # atno 4697 bound_to 1471
  -15.4778   17.6845   75.1361 LP  0  0  0  0  0  0  0  0  0  0  0  0  # atno 4731 bound_to 414 
  -14.6350   17.0179   76.3658 LP  0  0  0  0  0  0  0  0  0  0  0  0  # atno 4732 bound_to 414 
  -13.7996   16.4203   61.9422 LP  0  0  0  0  0  0  0  0  0  0  0  0  # atno 4733 bound_to 1114
  -12.3891   15.6542   61.6417 LP  0  0  0  0  0  0  0  0  0  0  0  0  # atno 4734 bound_to 1114
  -10.3884   14.8897   57.0977 LP  0  0  0  0  0  0  0  0  0  0  0  0  # atno 4763 bound_to 924 
  -11.8003   15.3012   56.3879 LP  0  0  0  0  0  0  0  0  0  0  0  0  # atno 4764 bound_to 924 
  -19.8575   13.8468   63.5388 LP  0  0  0  0  0  0  0  0  0  0  0  0  # atno 4771 bound_to 1244
  -20.6771   12.4973   63.1219 LP  0  0  0  0  0  0  0  0  0  0  0  0  # atno 4772 bound_to 1244
   -7.6859   22.8455   72.3028 LP  0  0  0  0  0  0  0  0  0  0  0  0  # atno 4775 bound_to 178 
   -6.5480   24.0066   72.1488 LP  0  0  0  0  0  0  0  0  0  0  0  0  # atno 4776 bound_to 178 
   -3.5660   24.3344   72.0555 LP  0  0  0  0  0  0  0  0  0  0  0  0  # atno 4779 bound_to 171 
   -2.1740   24.8106   72.7643 LP  0  0  0  0  0  0  0  0  0  0  0  0  # atno 4780 bound_to 171 
   -7.9665   25.0448   63.2501 LP  0  0  0  0  0  0  0  0  0  0  0  0  # atno 4783 bound_to 185 
   -7.2662   26.5183   63.3215 LP  0  0  0  0  0  0  0  0  0  0  0  0  # atno 4784 bound_to 185 
   -2.5313   16.7457   72.5637 LP  0  0  0  0  0  0  0  0  0  0  0  0  # atno 4785 bound_to 346 
   -2.0187   18.1911   73.1246 LP  0  0  0  0  0  0  0  0  0  0  0  0  # atno 4786 bound_to 346 
   -3.3993   22.0888   74.3944 LP  0  0  0  0  0  0  0  0  0  0  0  0  # atno 4787 bound_to 339 
   -3.4299   20.4941   74.7446 LP  0  0  0  0  0  0  0  0  0  0  0  0  # atno 4788 bound_to 339 
   -6.7040   29.1940   65.2303 LP  0  0  0  0  0  0  0  0  0  0  0  0  # atno 4797 bound_to 154 
   -8.1914   29.8257   64.9955 LP  0  0  0  0  0  0  0  0  0  0  0  0  # atno 4798 bound_to 154 

> <Gold.Score>
     Score     S(PLP)   S(hbond)     S(cho)   S(metal)  DE(clash)   DE(tors)     intcor
     52.69     -47.97       0.00       1.72       0.00       0.00       0.22       0.00

> <Gold.PLP.Fitness>
52.6854

> <Gold.PLP.PLP>
-47.9697

> <Gold.PLP.part.hbond>
0.0000

> <Gold.PLP.part.metal>
0.0000

> <Gold.PLP.part.buried>
-6.1986

> <Gold.PLP.part.nonpolar>
-42.9101

> <Gold.PLP.part.repulsive>
0.4045

> <Gold.PLP.ligand.clash>
0.0000

> <Gold.PLP.ligand.torsion>
0.2235

> <Gold.PLP.Chemscore.Hbond>
0.0000

> <Gold.PLP.Chemscore.CHOScore>
1.7209

> <Gold.PLP.Chemscore.Metal>
0.0000

> <Gold.Chemscore.Hbonds>
donor molecule, donor type, donor heavy atom, donor atom, acceptor molecule, acceptor atom, score
      L1  C    16    35       P1  1289  0.72
      L1  C    16    35       P1  1081  1.00

> <Gold.PLP.Chemscore.Internal.Correction>
0.0002

