#       Name:                /Users/williammccorkindale/ml_physics/smi2wyck/notebooks/docking/mpro_fragments/prepared_Mpro-x1249.mol2
#       Creating user name   williammccorkindale
#       Creation time:       Tue Jun  7 14:55:38 2022


#       File generated by GOLD software.
#

@<TRIPOS>MOLECULE
/Users/williammccorkindale/ml_physics/smi2wyck/notebooks/docking/mpro_fragments/prepared_Mpro-x1249.mol2
    38    39     1
SMALL
NO_CHARGES


@<TRIPOS>ATOM
      1 O1          -1.5234  -2.0047  -1.9020 O.2            1 RES1               0.0000
      2 C2          -1.5197  -1.3130  -0.9247 C.2            1 RES1               0.0000
      3 N3          -0.2202  -0.8606  -0.3316 N.am           1 RES1               0.0000
      4 C4           1.0294  -1.3948  -0.8087 C.3            1 RES1               0.0000
      5 C5           2.1161  -0.5243  -0.2937 C.ar           1 RES1               0.0000
      6 C6           3.3430  -1.2451   0.2237 C.ar           1 RES1               0.0000
      7 C7           4.5005  -0.4767   0.4577 C.ar           1 RES1               0.0000
      8 C8           4.5320   0.9698   0.1854 C.ar           1 RES1               0.0000
      9 C9           5.6988   1.7303   0.2478 C.1            1 RES1               0.0000
     10 N10          6.4502   2.2324   0.2861 N.1            1 RES1               0.0000
     11 C11          3.2976   1.4847  -0.2195 C.ar           1 RES1               0.0000
     12 C12          2.2165   0.6969  -0.4121 C.ar           1 RES1               0.0000
     13 N13         -2.5412  -0.7651  -0.0613 N.am           1 RES1               0.0000
     14 C14         -3.8889  -0.4778  -0.6346 C.3            1 RES1               0.0000
     15 C15         -4.0662   1.0202  -0.4310 C.3            1 RES1               0.0000
     16 O16         -3.2516   1.6274   0.4175 O.3            1 RES1               0.0000
     17 C17         -2.4275   1.0446   1.3259 C.3            1 RES1               0.0000
     18 C18         -2.3684  -0.4456   1.3074 C.3            1 RES1               0.0000
     19 H19         -0.2159  -0.0474   0.2305 H              1 RES1               0.0000
     20 H20          1.0293  -1.3866  -1.9369 H              1 RES1               0.0000
     21 H21          1.2629  -2.4283  -0.4746 H              1 RES1               0.0000
     22 H22          3.2767  -2.2681   0.3320 H              1 RES1               0.0000
     23 H23          5.2823  -1.0039   0.8547 H              1 RES1               0.0000
     24 H24          3.2097   2.5550  -0.4954 H              1 RES1               0.0000
     25 H25          1.1775   1.2231  -0.5637 H              1 RES1               0.0000
     26 H26         -3.8509  -0.7578  -1.6940 H              1 RES1               0.0000
     27 H27         -4.6367  -1.0596  -0.1539 H              1 RES1               0.0000
     28 H28         -3.8930   1.4998  -1.4643 H              1 RES1               0.0000
     29 H29         -5.1989   1.2623  -0.2993 H              1 RES1               0.0000
     30 H30         -2.6426   1.4257   2.4433 H              1 RES1               0.0000
     31 H31         -1.3616   1.4008   1.2591 H              1 RES1               0.0000
     32 H32         -3.3192  -0.8408   1.8438 H              1 RES1               0.0000
     33 H33         -1.4966  -0.8728   1.6858 H              1 RES1               0.0000
     34 ****        -0.6591  -2.2806  -2.3226 LP             1 RES1               0.0000
     35 ****        -2.3908  -2.3065  -2.2976 LP             1 RES1               0.0000
     36 ****         7.2809   2.7875   0.3285 LP             1 RES1               0.0000
     37 ****        -3.8431   2.2277   0.9559 LP             1 RES1               0.0000
     38 ****        -2.6491   2.1812  -0.1572 LP             1 RES1               0.0000
@<TRIPOS>BOND
    1    1    2 2     
    2    2    3 am    
    3    3    4 1     
    4    4    5 1     
    5    5    6 ar    
    6    6    7 ar    
    7    7    8 ar    
    8    8    9 1     
    9    9   10 3     
   10    8   11 ar    
   11   11   12 ar    
   12    2   13 am    
   13   13   14 1     
   14   14   15 1     
   15   15   16 1     
   16   16   17 1     
   17   17   18 1     
   18    5   12 ar    
   19   18   13 1     
   20    3   19 1     
   21    4   20 1     
   22    4   21 1     
   23    6   22 1     
   24    7   23 1     
   25   11   24 1     
   26   12   25 1     
   27   14   26 1     
   28   14   27 1     
   29   15   28 1     
   30   15   29 1     
   31   17   30 1     
   32   17   31 1     
   33   18   32 1     
   34   18   33 1     
   35    1   34 1     
   36    1   35 1     
   37   10   36 1     
   38   16   37 1     
   39   16   38 1     
@<TRIPOS>SUBSTRUCTURE
      1 RES1           1
@<TRIPOS>SET
LONE_PAIRS      STATIC     ATOMS    <user>   **** ""
5 34 35 36 37 38
DONOR_HYDROGENS      STATIC     ATOMS    <user>   **** ""
1 19
ATOM$BLUE        STATIC     ATOMS    COLORGROUP SYSTEM
5 34 35 36 37 38
ATOM$RED        STATIC     ATOMS    COLORGROUP SYSTEM
1 19
