#       Name:                unknown
#       Creating user name   williammccorkindale
#       Creation time:       Tue Jun  7 14:55:39 2022


#       File generated by GOLD software.
#

@<TRIPOS>MOLECULE
unknown|prepared_Mpro-x0995|mol2|1|dock1
    14    14     1
SMALL
NO_CHARGES


@<TRIPOS>ATOM
      1 N1         -12.9017  16.2358  74.8103 N.pl3          1 RES1               0.0000
      2 C2         -12.7228  15.7904  73.4702 C.ar           1 RES1               0.0000
      3 C3         -13.5154  14.8132  72.8973 C.ar           1 RES1               0.0000
      4 N4         -13.2977  14.4250  71.6060 N.ar           1 RES1               0.0000
      5 C5         -12.3170  14.9847  70.8816 C.ar           1 RES1               0.0000
      6 N6         -11.5380  15.9251  71.4001 N.ar           1 RES1               0.0000
      7 C7         -11.7253  16.3396  72.6889 C.ar           1 RES1               0.0000
      8 H8         -13.6594  15.8333  75.4358 H              1 RES1               0.0000
      9 H9         -12.3018  16.9712  75.2348 H              1 RES1               0.0000
     10 H10        -14.2878  14.3854  73.4966 H              1 RES1               0.0000
     11 H11        -12.1662  14.6601  69.8642 H              1 RES1               0.0000
     12 H12        -11.1098  17.0970  73.1304 H              1 RES1               0.0000
     13 ****       -13.8742  13.7176  71.1971 LP             1 RES1               0.0000
     14 ****       -10.8116  16.3318  70.8462 LP             1 RES1               0.0000
@<TRIPOS>BOND
    1    1    2 1     
    2    2    3 ar    
    3    3    4 ar    
    4    4    5 ar    
    5    5    6 ar    
    6    6    7 ar    
    7    2    7 ar    
    8    1    8 1     
    9    1    9 1     
   10    3   10 1     
   11    5   11 1     
   12    7   12 1     
   13    4   13 1     
   14    6   14 1     
@<TRIPOS>SUBSTRUCTURE
      1 RES1           1
@<TRIPOS>SET
LONE_PAIRS      STATIC     ATOMS    <user>   **** ""
2 13 14
DONOR_HYDROGENS      STATIC     ATOMS    <user>   **** ""
2 8 9
ATOM$BLUE        STATIC     ATOMS    COLORGROUP SYSTEM
2 13 14
ATOM$RED        STATIC     ATOMS    COLORGROUP SYSTEM
2 8 9
@<TRIPOS>COMMENT
> <Gold.Version>
2022.1.0

> <Gold.Id.Protein>
6LU7|6LU7_protein|mol2

> <Gold.Protein.RotatedTorsions>
[ 3973 1471 1470 1467 ] final  156.25 input   60.00 | X-H torsion
[ 3372  414  413  411 ] final  139.18 input   60.00 | X-H torsion
[ 4268 1114 1113 1110 ] final   54.12 input   59.99 | X-H torsion
[ 4409  924  923  921 ] final -123.01 input   59.99 | X-H torsion
[ 4183 1244 1243 1241 ] final  -15.45 input   59.99 | X-H torsion
[ 3800  178  177  174 ] final   14.14 input   60.00 | X-H torsion
[ 3793  171  170  167 ] final  -89.33 input   60.00 | X-H torsion
[ 3576  185  184  181 ] final  155.93 input   60.00 | X-H torsion
[ 3523  346  345  342 ] final   20.19 input   60.01 | X-H torsion
[ 3515  339  338  335 ] final -172.63 input   60.00 | X-H torsion
[ 3663  154  153  150 ] final  -71.90 input   60.00 | X-H torsion
[ 4280 1130 1129 1126 ] final   11.29 input   60.00 | X-H torsion

> <Gold.Protein.ActiveResidues>
 VAL20   THR21   CYS22   GLY23   THR24   THR25   THR26   LEU27   ASN28   PRO39  
 ARG40   HIS41   VAL42   CYS44   THR45   SER46   ASP48   MET49   LEU50   PRO52  
 TYR54   TYR118  ASN119  ILE136  GLY138  SER139  PHE140  LEU141  ASN142  GLY143 
 SER144  CYS145  GLY146  SER147  TYR161  HIS163  HIS164  MET165  GLU166  LEU167 
 PRO168  THR169  GLY170  VAL171  HIS172  ALA173  PHE181  PHE185  VAL186  ASP187 
 ARG188  GLN189  THR190  ALA191  GLN192  ALA193 

> <Gold.Protein.RotatedAtoms>
  -14.5226   17.0715   76.3835 H   0  0  0  0  0  0  0  0  0  0  0  0  # atno 3372 bound_to 414 
   -2.6659   21.8234   75.6126 H   0  0  0  0  0  0  0  0  0  0  0  0  # atno 3515 bound_to 339 
   -3.4236   18.2166   73.0254 H   0  0  0  0  0  0  0  0  0  0  0  0  # atno 3523 bound_to 346 
   -7.2594   26.4954   63.3137 H   0  0  0  0  0  0  0  0  0  0  0  0  # atno 3576 bound_to 185 
   -7.4100   28.2373   65.5214 H   0  0  0  0  0  0  0  0  0  0  0  0  # atno 3663 bound_to 154 
   -2.3701   24.9130   72.7635 H   0  0  0  0  0  0  0  0  0  0  0  0  # atno 3793 bound_to 171 
   -6.0726   23.5034   71.6022 H   0  0  0  0  0  0  0  0  0  0  0  0  # atno 3800 bound_to 178 
  -15.7055    7.8780   78.4765 H   0  0  0  0  0  0  0  0  0  0  0  0  # atno 3973 bound_to 1471
  -20.9267   12.9394   64.5424 H   0  0  0  0  0  0  0  0  0  0  0  0  # atno 4183 bound_to 1244
  -13.9815   16.3358   61.7898 H   0  0  0  0  0  0  0  0  0  0  0  0  # atno 4268 bound_to 1114
  -15.9856   20.3321   59.2303 H   0  0  0  0  0  0  0  0  0  0  0  0  # atno 4280 bound_to 1130
  -11.7019   15.3033   57.9952 H   0  0  0  0  0  0  0  0  0  0  0  0  # atno 4409 bound_to 924 
  -15.2533    7.6402   76.9315 LP  0  0  0  0  0  0  0  0  0  0  0  0  # atno 4696 bound_to 1471
  -15.0729    9.1094   77.6212 LP  0  0  0  0  0  0  0  0  0  0  0  0  # atno 4697 bound_to 1471
  -14.0536   18.2806   75.4006 LP  0  0  0  0  0  0  0  0  0  0  0  0  # atno 4731 bound_to 414 
  -15.5210   17.5905   75.2080 LP  0  0  0  0  0  0  0  0  0  0  0  0  # atno 4732 bound_to 414 
  -12.4333   15.8354   61.8120 LP  0  0  0  0  0  0  0  0  0  0  0  0  # atno 4733 bound_to 1114
  -13.4948   15.1689   60.7654 LP  0  0  0  0  0  0  0  0  0  0  0  0  # atno 4734 bound_to 1114
  -10.3864   14.8897   57.1313 LP  0  0  0  0  0  0  0  0  0  0  0  0  # atno 4763 bound_to 924 
  -11.7734   15.2928   56.3695 LP  0  0  0  0  0  0  0  0  0  0  0  0  # atno 4764 bound_to 924 
  -19.8934   13.9096   63.7430 LP  0  0  0  0  0  0  0  0  0  0  0  0  # atno 4771 bound_to 1244
  -20.5431   12.6113   62.9955 LP  0  0  0  0  0  0  0  0  0  0  0  0  # atno 4772 bound_to 1244
   -7.1415   22.2791   71.6851 LP  0  0  0  0  0  0  0  0  0  0  0  0  # atno 4775 bound_to 178 
   -7.4072   23.6568   72.5206 LP  0  0  0  0  0  0  0  0  0  0  0  0  # atno 4776 bound_to 178 
   -2.0463   23.5031   72.0184 LP  0  0  0  0  0  0  0  0  0  0  0  0  # atno 4779 bound_to 171 
   -3.5472   24.1423   71.9459 LP  0  0  0  0  0  0  0  0  0  0  0  0  # atno 4780 bound_to 171 
   -8.7091   26.2918   64.0242 LP  0  0  0  0  0  0  0  0  0  0  0  0  # atno 4783 bound_to 185 
   -7.9880   25.0414   63.2606 LP  0  0  0  0  0  0  0  0  0  0  0  0  # atno 4784 bound_to 185 
   -2.9042   16.7537   72.5372 LP  0  0  0  0  0  0  0  0  0  0  0  0  # atno 4785 bound_to 346 
   -1.8310   17.8823   73.0282 LP  0  0  0  0  0  0  0  0  0  0  0  0  # atno 4786 bound_to 346 
   -3.5370   21.8504   74.2384 LP  0  0  0  0  0  0  0  0  0  0  0  0  # atno 4787 bound_to 339 
   -3.2689   20.4369   75.0109 LP  0  0  0  0  0  0  0  0  0  0  0  0  # atno 4788 bound_to 339 
   -6.9681   29.7318   65.0531 LP  0  0  0  0  0  0  0  0  0  0  0  0  # atno 4797 bound_to 154 
   -8.5497   29.3356   65.1435 LP  0  0  0  0  0  0  0  0  0  0  0  0  # atno 4798 bound_to 154 

> <Gold.Score>
     Score     S(PLP)   S(hbond)     S(cho)   S(metal)  DE(clash)   DE(tors)     intcor
     27.20     -24.20       1.00       0.00       0.00       0.00       0.00       0.00

> <Gold.PLP.Fitness>
27.1976

> <Gold.PLP.PLP>
-24.1976

> <Gold.PLP.part.hbond>
-2.0000

> <Gold.PLP.part.metal>
0.0000

> <Gold.PLP.part.buried>
-6.0550

> <Gold.PLP.part.nonpolar>
-16.5825

> <Gold.PLP.part.repulsive>
0.2588

> <Gold.PLP.ligand.clash>
0.0000

> <Gold.PLP.ligand.torsion>
0.0000

> <Gold.PLP.Chemscore.Hbond>
1.0000

> <Gold.PLP.Chemscore.CHOScore>
0.0000

> <Gold.PLP.Chemscore.Metal>
0.0000

> <Gold.Chemscore.Hbonds>
donor molecule, donor type, donor heavy atom, donor atom, acceptor molecule, acceptor atom, score
      L1  H     1     8       P1  1441  1.00

> <Gold.PLP.Chemscore.Internal.Correction>
0.0000

