#       Name:                /Users/williammccorkindale/ml_physics/smi2wyck/notebooks/docking/mpro_fragments/prepared_Mpro-x2193.sdf
#       Creating user name   williammccorkindale
#       Creation time:       Tue Jun  7 14:44:34 2022


#       File generated by GOLD software.
#

@<TRIPOS>MOLECULE
/Users/williammccorkindale/ml_physics/smi2wyck/notebooks/docking/mpro_fragments/prepared_Mpro-x2193.sdf
    33    34     1
SMALL
NO_CHARGES


@<TRIPOS>ATOM
      1 ****         4.8250   0.5722  -1.2920 C.3            1 S1                 0.0000
      2 ****         4.3201  -0.5876  -0.0373 S.o2           1 S1                 0.0000
      3 ****         5.0413  -0.3032   1.2496 O.2            1 S1                 0.0000
      4 ****         4.6334  -2.0082  -0.4846 O.2            1 S1                 0.0000
      5 ****         2.5812  -0.4460   0.1493 C.ar           1 S1                 0.0000
      6 ****         1.7185  -1.2143  -0.6010 C.ar           1 S1                 0.0000
      7 ****         0.3528  -1.1101  -0.4618 C.ar           1 S1                 0.0000
      8 ****        -0.2236  -0.2285   0.4389 C.ar           1 S1                 0.0000
      9 ****         0.6245   0.5420   1.1924 C.ar           1 S1                 0.0000
     10 ****         2.0138   0.4320   1.0464 C.ar           1 S1                 0.0000
     11 ****        -1.6184  -0.1243   0.6072 N.pl3          1 S1                 0.0000
     12 ****        -2.2102   1.0895   1.0977 C.3            1 S1                 0.0000
     13 ****        -3.2647   1.5407   0.0959 C.3            1 S1                 0.0000
     14 ****        -4.1830   0.4811  -0.1633 N.3            1 S1                 0.0000
     15 ****        -3.5344  -0.7103  -0.6841 C.3            1 S1                 0.0000
     16 ****        -2.5178  -1.2256   0.3165 C.3            1 S1                 0.0000
     17 ****         5.2752   1.4746  -0.7980 H              1 S1                 0.0000
     18 ****         3.9815   0.9082  -1.9185 H              1 S1                 0.0000
     19 ****         5.5891   0.0858  -1.9361 H              1 S1                 0.0000
     20 ****         2.1650  -1.9173  -1.3188 H              1 S1                 0.0000
     21 ****        -0.2894  -1.7338  -1.0772 H              1 S1                 0.0000
     22 ****         0.2047   1.2317   1.9107 H              1 S1                 0.0000
     23 ****         2.6393   1.0468   1.6484 H              1 S1                 0.0000
     24 ****        -2.7937   0.8118   2.0165 H              1 S1                 0.0000
     25 ****        -1.5180   1.8956   1.3260 H              1 S1                 0.0000
     26 ****        -2.7191   1.8950  -0.8085 H              1 S1                 0.0000
     27 ****        -3.8222   2.3643   0.5875 H              1 S1                 0.0000
     28 ****        -4.9169   0.7478  -0.8296 H              1 S1                 0.0000
     29 ****        -4.3470  -1.4591  -0.8580 H              1 S1                 0.0000
     30 ****        -2.9823  -0.4603  -1.6125 H              1 S1                 0.0000
     31 ****        -1.9917  -2.0885  -0.0784 H              1 S1                 0.0000
     32 ****        -3.0327  -1.5020   1.2765 H              1 S1                 0.0000
     33 ****        -4.5887   0.2833   0.7291 LP             1 S1                 0.0000
@<TRIPOS>BOND
    1    1    2 1     
    2    2    3 2     
    3    2    4 2     
    4    2    5 1     
    5    5    6 ar    
    6    6    7 ar    
    7    7    8 ar    
    8    8    9 ar    
    9    9   10 ar    
   10    8   11 1     
   11   11   12 1     
   12   12   13 1     
   13   13   14 1     
   14   14   15 1     
   15   15   16 1     
   16   10    5 ar    
   17   16   11 1     
   18    1   17 1     
   19    1   18 1     
   20    1   19 1     
   21    6   20 1     
   22    7   21 1     
   23    9   22 1     
   24   10   23 1     
   25   12   24 1     
   26   12   25 1     
   27   13   26 1     
   28   13   27 1     
   29   14   28 1     
   30   15   29 1     
   31   15   30 1     
   32   16   31 1     
   33   16   32 1     
   34   14   33 1     
@<TRIPOS>SUBSTRUCTURE
      1 S1             1
@<TRIPOS>SET
LONE_PAIRS      STATIC     ATOMS    <user>   **** ""
3 3 4 33
DONOR_HYDROGENS      STATIC     ATOMS    <user>   **** ""
1 28
ATOM$BLUE        STATIC     ATOMS    COLORGROUP SYSTEM
3 3 4 33
ATOM$RED        STATIC     ATOMS    COLORGROUP SYSTEM
1 28
