#       Name:                unknown
#       Creating user name   williammccorkindale
#       Creation time:       Tue Jun  7 14:55:43 2022


#       File generated by GOLD software.
#

@<TRIPOS>MOLECULE
unknown|prepared_Mpro-x0397|mol2|1|dock1
    35    36     1
SMALL
NO_CHARGES


@<TRIPOS>ATOM
      1 C1         -11.7498  10.8151  69.1877 C.3            1 RES1               0.0000
      2 N2         -11.7181  12.2060  69.5883 N.am           1 RES1               0.0000
      3 C3         -11.0231  13.1610  68.7642 C.3            1 RES1               0.0000
      4 C4         -11.6250  13.2590  67.4060 C.2            1 RES1               0.0000
      5 C5         -11.6402  12.3339  66.3829 C.2            1 RES1               0.0000
      6 C6         -12.3325  12.9031  65.3077 C.2            1 RES1               0.0000
      7 C7         -12.5914  12.2599  63.9926 C.3            1 RES1               0.0000
      8 O8         -12.6924  14.1010  65.7104 O.3            1 RES1               0.0000
      9 N9         -12.2904  14.3246  66.9256 N.2            1 RES1               0.0000
     10 C10        -12.3842  12.5592  70.7918 C.2            1 RES1               0.0000
     11 O11        -12.9837  11.7099  71.4953 O.2            1 RES1               0.0000
     12 N12        -12.4153  13.9016  71.2793 N.am           1 RES1               0.0000
     13 C13        -13.0789  14.2930  72.4912 C.3            1 RES1               0.0000
     14 C14        -12.8999  15.7778  72.8396 C.3            1 RES1               0.0000
     15 C15        -14.2535  15.2653  72.3777 C.3            1 RES1               0.0000
     16 H16        -12.6198  10.2714  69.6487 H              1 RES1               0.0000
     17 H17        -10.8478  10.2941  69.6131 H              1 RES1               0.0000
     18 H18        -11.8256  10.6701  68.1094 H              1 RES1               0.0000
     19 H19        -10.9943  14.1413  69.2814 H              1 RES1               0.0000
     20 H20         -9.9464  12.8393  68.6917 H              1 RES1               0.0000
     21 H21        -11.1925  11.3552  66.4271 H              1 RES1               0.0000
     22 H22        -13.5128  12.6185  63.5195 H              1 RES1               0.0000
     23 H23        -12.6843  11.1486  64.1042 H              1 RES1               0.0000
     24 H24        -11.7137  12.4196  63.3126 H              1 RES1               0.0000
     25 H25        -11.9323  14.6376  70.7289 H              1 RES1               0.0000
     26 H26        -13.1032  13.5751  73.3431 H              1 RES1               0.0000
     27 H27        -12.3174  16.4085  72.1457 H              1 RES1               0.0000
     28 H28        -12.7937  16.0358  73.9127 H              1 RES1               0.0000
     29 H29        -15.0324  15.2330  73.1575 H              1 RES1               0.0000
     30 H30        -14.5264  15.5141  71.3485 H              1 RES1               0.0000
     31 ****       -13.6894  14.1711  65.6778 LP             1 RES1               0.0000
     32 ****       -12.2901  14.7851  65.1019 LP             1 RES1               0.0000
     33 ****       -12.4531  15.1709  67.4329 LP             1 RES1               0.0000
     34 ****       -13.0022  10.7506  71.2135 LP             1 RES1               0.0000
     35 ****       -13.4428  11.9926  72.3375 LP             1 RES1               0.0000
@<TRIPOS>BOND
    1    1    2 1     
    2    2    3 1     
    3    3    4 1     
    4    4    5 1     
    5    5    6 2     
    6    6    7 1     
    7    6    8 1     
    8    8    9 1     
    9    2   10 am    
   10   10   11 2     
   11   10   12 am    
   12   12   13 1     
   13   13   14 1     
   14   14   15 1     
   15    4    9 2     
   16   15   13 1     
   17    1   16 1     
   18    1   17 1     
   19    1   18 1     
   20    3   19 1     
   21    3   20 1     
   22    5   21 1     
   23    7   22 1     
   24    7   23 1     
   25    7   24 1     
   26   12   25 1     
   27   13   26 1     
   28   14   27 1     
   29   14   28 1     
   30   15   29 1     
   31   15   30 1     
   32    8   31 1     
   33    8   32 1     
   34    9   33 1     
   35   11   34 1     
   36   11   35 1     
@<TRIPOS>SUBSTRUCTURE
      1 RES1           1
@<TRIPOS>SET
LONE_PAIRS      STATIC     ATOMS    <user>   **** ""
5 31 32 33 34 35
DONOR_HYDROGENS      STATIC     ATOMS    <user>   **** ""
1 25
ATOM$BLUE        STATIC     ATOMS    COLORGROUP SYSTEM
5 31 32 33 34 35
ATOM$RED        STATIC     ATOMS    COLORGROUP SYSTEM
1 25
@<TRIPOS>COMMENT
> <Gold.Version>
2022.1.0

> <Gold.Id.Protein>
6LU7|6LU7_protein|mol2

> <Gold.Protein.RotatedTorsions>
[ 3973 1471 1470 1467 ] final -114.43 input   60.00 | X-H torsion
[ 3372  414  413  411 ] final  -42.79 input   60.00 | X-H torsion
[ 4268 1114 1113 1110 ] final  -17.15 input   59.99 | X-H torsion
[ 4409  924  923  921 ] final   37.73 input   59.99 | X-H torsion
[ 4183 1244 1243 1241 ] final  149.42 input   59.99 | X-H torsion
[ 3800  178  177  174 ] final -119.75 input   60.00 | X-H torsion
[ 3793  171  170  167 ] final  176.74 input   60.00 | X-H torsion
[ 3576  185  184  181 ] final  146.20 input   60.00 | X-H torsion
[ 3523  346  345  342 ] final -163.35 input   60.01 | X-H torsion
[ 3515  339  338  335 ] final  -34.41 input   60.00 | X-H torsion
[ 3663  154  153  150 ] final   68.09 input   60.00 | X-H torsion
[ 4280 1130 1129 1126 ] final -133.93 input   60.00 | X-H torsion

> <Gold.Protein.ActiveResidues>
 VAL20   THR21   CYS22   GLY23   THR24   THR25   THR26   LEU27   ASN28   PRO39  
 ARG40   HIS41   VAL42   CYS44   THR45   SER46   ASP48   MET49   LEU50   PRO52  
 TYR54   TYR118  ASN119  ILE136  GLY138  SER139  PHE140  LEU141  ASN142  GLY143 
 SER144  CYS145  GLY146  SER147  TYR161  HIS163  HIS164  MET165  GLU166  LEU167 
 PRO168  THR169  GLY170  VAL171  HIS172  ALA173  PHE181  PHE185  VAL186  ASP187 
 ARG188  GLN189  THR190  ALA191  GLN192  ALA193 

> <Gold.Protein.RotatedAtoms>
  -14.9048   18.2090   74.9465 H   0  0  0  0  0  0  0  0  0  0  0  0  # atno 3372 bound_to 414 
   -3.4215   20.4946   74.7620 H   0  0  0  0  0  0  0  0  0  0  0  0  # atno 3515 bound_to 339 
   -1.9825   17.0614   72.7231 H   0  0  0  0  0  0  0  0  0  0  0  0  # atno 3523 bound_to 346 
   -7.3397   26.6087   63.3909 H   0  0  0  0  0  0  0  0  0  0  0  0  # atno 3576 bound_to 185 
   -8.4029   29.6146   65.0603 H   0  0  0  0  0  0  0  0  0  0  0  0  # atno 3663 bound_to 154 
   -1.8145   23.7734   72.2483 H   0  0  0  0  0  0  0  0  0  0  0  0  # atno 3793 bound_to 171 
   -7.3175   22.3322   71.8188 H   0  0  0  0  0  0  0  0  0  0  0  0  # atno 3800 bound_to 178 
  -15.2442    9.0464   78.0835 H   0  0  0  0  0  0  0  0  0  0  0  0  # atno 3973 bound_to 1471
  -20.1002   13.1666   62.8961 H   0  0  0  0  0  0  0  0  0  0  0  0  # atno 4183 bound_to 1244
  -12.9455   16.3220   62.1311 H   0  0  0  0  0  0  0  0  0  0  0  0  # atno 4268 bound_to 1114
  -16.2286   19.0237   58.0380 H   0  0  0  0  0  0  0  0  0  0  0  0  # atno 4280 bound_to 1130
  -11.1591   15.1081   56.2417 H   0  0  0  0  0  0  0  0  0  0  0  0  # atno 4409 bound_to 924 
  -15.7123    7.4900   78.1659 LP  0  0  0  0  0  0  0  0  0  0  0  0  # atno 4696 bound_to 1471
  -15.0785    8.0829   76.7826 LP  0  0  0  0  0  0  0  0  0  0  0  0  # atno 4697 bound_to 1471
  -15.3228   17.0007   75.9531 LP  0  0  0  0  0  0  0  0  0  0  0  0  # atno 4731 bound_to 414 
  -13.8669   17.7249   76.1026 LP  0  0  0  0  0  0  0  0  0  0  0  0  # atno 4732 bound_to 414 
  -12.7561   15.1590   61.0088 LP  0  0  0  0  0  0  0  0  0  0  0  0  # atno 4733 bound_to 1114
  -14.2154   15.8592   61.2250 LP  0  0  0  0  0  0  0  0  0  0  0  0  # atno 4734 bound_to 1114
  -12.1271   15.4199   57.5120 LP  0  0  0  0  0  0  0  0  0  0  0  0  # atno 4763 bound_to 924 
  -10.5794   14.9591   57.7549 LP  0  0  0  0  0  0  0  0  0  0  0  0  # atno 4764 bound_to 924 
  -21.0550   12.4706   64.0150 LP  0  0  0  0  0  0  0  0  0  0  0  0  # atno 4771 bound_to 1244
  -20.2140   13.8215   64.3814 LP  0  0  0  0  0  0  0  0  0  0  0  0  # atno 4772 bound_to 1244
   -7.2425   23.8118   72.4919 LP  0  0  0  0  0  0  0  0  0  0  0  0  # atno 4775 bound_to 178 
   -6.0525   23.3036   71.4957 LP  0  0  0  0  0  0  0  0  0  0  0  0  # atno 4776 bound_to 178 
   -3.3746   23.7882   71.7859 LP  0  0  0  0  0  0  0  0  0  0  0  0  # atno 4779 bound_to 171 
   -2.7785   25.0050   72.6973 LP  0  0  0  0  0  0  0  0  0  0  0  0  # atno 4780 bound_to 171 
   -8.7701   26.1445   64.0123 LP  0  0  0  0  0  0  0  0  0  0  0  0  # atno 4783 bound_to 185 
   -7.8461   25.0747   63.1948 LP  0  0  0  0  0  0  0  0  0  0  0  0  # atno 4784 bound_to 185 
   -2.5955   18.4951   73.1885 LP  0  0  0  0  0  0  0  0  0  0  0  0  # atno 4785 bound_to 346 
   -3.5910   17.3043   72.6812 LP  0  0  0  0  0  0  0  0  0  0  0  0  # atno 4786 bound_to 346 
   -2.6368   21.5482   75.7223 LP  0  0  0  0  0  0  0  0  0  0  0  0  # atno 4787 bound_to 339 
   -3.4080   22.0772   74.3836 LP  0  0  0  0  0  0  0  0  0  0  0  0  # atno 4788 bound_to 339 
   -7.7344   28.2046   65.5221 LP  0  0  0  0  0  0  0  0  0  0  0  0  # atno 4797 bound_to 154 
   -6.7834   29.4756   65.1389 LP  0  0  0  0  0  0  0  0  0  0  0  0  # atno 4798 bound_to 154 

> <Gold.Score>
     Score     S(PLP)   S(hbond)     S(cho)   S(metal)  DE(clash)   DE(tors)     intcor
     41.98     -42.11       0.00       0.00       0.00       0.00       0.09       0.05

> <Gold.PLP.Fitness>
41.9814

> <Gold.PLP.PLP>
-42.1074

> <Gold.PLP.part.hbond>
0.0000

> <Gold.PLP.part.metal>
0.0000

> <Gold.PLP.part.buried>
-7.8370

> <Gold.PLP.part.nonpolar>
-35.4824

> <Gold.PLP.part.repulsive>
0.3769

> <Gold.PLP.ligand.clash>
0.0000

> <Gold.PLP.ligand.torsion>
0.0862

> <Gold.PLP.Chemscore.Hbond>
0.0000

> <Gold.PLP.Chemscore.CHOScore>
0.0000

> <Gold.PLP.Chemscore.Metal>
0.0000

> <Gold.PLP.Chemscore.Internal.Correction>
0.0464

