#       Name:                unknown
#       Creating user name   williammccorkindale
#       Creation time:       Tue Jun  7 14:55:37 2022


#       File generated by GOLD software.
#

@<TRIPOS>MOLECULE
unknown|prepared_Mpro-x1077|mol2|1|dock1
    32    33     1
SMALL
NO_CHARGES


@<TRIPOS>ATOM
      1 N1         -12.1978   6.7371  71.1862 N.1            1 RES1               0.0000
      2 C2         -12.3162   7.8886  71.1996 C.1            1 RES1               0.0000
      3 C3         -12.4642   9.3296  71.1972 C.ar           1 RES1               0.0000
      4 C4         -11.8511  10.1125  70.2412 C.ar           1 RES1               0.0000
      5 C5         -11.9929  11.4914  70.2389 C.ar           1 RES1               0.0000
      6 C6         -12.7539  12.1343  71.1942 C.ar           1 RES1               0.0000
      7 C7         -13.3513  11.3199  72.1329 C.ar           1 RES1               0.0000
      8 N8         -13.2038   9.9623  72.1244 N.ar           1 RES1               0.0000
      9 N9         -12.8916  13.5360  71.1873 N.pl3          1 RES1               0.0000
     10 C10        -11.9229  14.2287  70.3197 C.3            1 RES1               0.0000
     11 C11        -12.0100  15.7204  70.4399 C.3            1 RES1               0.0000
     12 C12        -12.1148  16.1822  71.8852 C.3            1 RES1               0.0000
     13 O13        -11.9439  15.1682  72.7956 O.3            1 RES1               0.0000
     14 C14        -13.2054  14.7043  73.2365 C.3            1 RES1               0.0000
     15 C15        -13.8896  14.1934  71.9606 C.3            1 RES1               0.0000
     16 H16        -11.2537   9.5970  69.4930 H              1 RES1               0.0000
     17 H17        -11.4958  12.0910  69.4679 H              1 RES1               0.0000
     18 H18        -13.9493  11.8069  72.8882 H              1 RES1               0.0000
     19 H19        -12.1989  13.9517  69.2822 H              1 RES1               0.0000
     20 H20        -10.8865  13.9449  70.5916 H              1 RES1               0.0000
     21 H21        -12.9226  16.0376  69.8701 H              1 RES1               0.0000
     22 H22        -11.1210  16.1560  69.9872 H              1 RES1               0.0000
     23 H23        -13.0640  16.6957  72.1014 H              1 RES1               0.0000
     24 H24        -11.3101  16.9410  72.0917 H              1 RES1               0.0000
     25 H25        -13.1017  13.8856  73.9553 H              1 RES1               0.0000
     26 H26        -13.7797  15.5693  73.6358 H              1 RES1               0.0000
     27 H27        -14.8111  13.6610  72.1554 H              1 RES1               0.0000
     28 H28        -14.2170  15.1481  71.4438 H              1 RES1               0.0000
     29 ****       -12.0955   5.7424  71.1745 LP             1 RES1               0.0000
     30 ****       -13.6607   9.4214  72.8306 LP             1 RES1               0.0000
     31 ****       -11.4230  15.5088  73.5784 LP             1 RES1               0.0000
     32 ****       -11.4451  14.4159  72.3652 LP             1 RES1               0.0000
@<TRIPOS>BOND
    1    1    2 3     
    2    2    3 1     
    3    3    4 ar    
    4    4    5 ar    
    5    5    6 ar    
    6    6    7 ar    
    7    7    8 ar    
    8    6    9 1     
    9    9   10 1     
   10   10   11 1     
   11   11   12 1     
   12   12   13 1     
   13   13   14 1     
   14   14   15 1     
   15    3    8 ar    
   16   15    9 1     
   17    4   16 1     
   18    5   17 1     
   19    7   18 1     
   20   10   19 1     
   21   10   20 1     
   22   11   21 1     
   23   11   22 1     
   24   12   23 1     
   25   12   24 1     
   26   14   25 1     
   27   14   26 1     
   28   15   27 1     
   29   15   28 1     
   30    1   29 1     
   31    8   30 1     
   32   13   31 1     
   33   13   32 1     
@<TRIPOS>SUBSTRUCTURE
      1 RES1           1
@<TRIPOS>SET
LONE_PAIRS      STATIC     ATOMS    <user>   **** ""
4 29 30 31 32
ATOM$BLUE        STATIC     ATOMS    COLORGROUP SYSTEM
4 29 30 31 32
@<TRIPOS>COMMENT
> <Gold.Version>
2022.1.0

> <Gold.Id.Protein>
6LU7|6LU7_protein|mol2

> <Gold.Protein.RotatedTorsions>
[ 3973 1471 1470 1467 ] final   22.98 input   60.00 | X-H torsion
[ 3372  414  413  411 ] final   28.94 input   60.00 | X-H torsion
[ 4268 1114 1113 1110 ] final  176.47 input   59.99 | X-H torsion
[ 4409  924  923  921 ] final  103.35 input   59.99 | X-H torsion
[ 4183 1244 1243 1241 ] final   28.17 input   59.99 | X-H torsion
[ 3800  178  177  174 ] final -148.80 input   60.00 | X-H torsion
[ 3793  171  170  167 ] final  121.47 input   60.00 | X-H torsion
[ 3576  185  184  181 ] final  109.64 input   60.00 | X-H torsion
[ 3523  346  345  342 ] final  111.55 input   60.01 | X-H torsion
[ 3515  339  338  335 ] final  -11.23 input   60.00 | X-H torsion
[ 3663  154  153  150 ] final   47.14 input   60.00 | X-H torsion
[ 4280 1130 1129 1126 ] final -114.24 input   60.00 | X-H torsion

> <Gold.Protein.ActiveResidues>
 VAL20   THR21   CYS22   GLY23   THR24   THR25   THR26   LEU27   ASN28   PRO39  
 ARG40   HIS41   VAL42   CYS44   THR45   SER46   ASP48   MET49   LEU50   PRO52  
 TYR54   TYR118  ASN119  ILE136  GLY138  SER139  PHE140  LEU141  ASN142  GLY143 
 SER144  CYS145  GLY146  SER147  TYR161  HIS163  HIS164  MET165  GLU166  LEU167 
 PRO168  THR169  GLY170  VAL171  HIS172  ALA173  PHE181  PHE185  VAL186  ASP187 
 ARG188  GLN189  THR190  ALA191  GLN192  ALA193 

> <Gold.Protein.RotatedAtoms>
  -13.9711   18.2177   75.5223 H   0  0  0  0  0  0  0  0  0  0  0  0  # atno 3372 bound_to 414 
   -3.5743   20.6848   74.4756 H   0  0  0  0  0  0  0  0  0  0  0  0  # atno 3515 bound_to 339 
   -2.0895   18.2510   73.1431 H   0  0  0  0  0  0  0  0  0  0  0  0  # atno 3523 bound_to 346 
   -7.7818   26.8432   63.6981 H   0  0  0  0  0  0  0  0  0  0  0  0  # atno 3576 bound_to 185 
   -8.5475   29.3201   65.1508 H   0  0  0  0  0  0  0  0  0  0  0  0  # atno 3663 bound_to 154 
   -2.4563   23.3788   71.8164 H   0  0  0  0  0  0  0  0  0  0  0  0  # atno 3793 bound_to 171 
   -7.5928   22.5763   72.1107 H   0  0  0  0  0  0  0  0  0  0  0  0  # atno 3800 bound_to 178 
  -15.1704    7.8210   76.8441 H   0  0  0  0  0  0  0  0  0  0  0  0  # atno 3973 bound_to 1471
  -21.0539   12.4851   64.0311 H   0  0  0  0  0  0  0  0  0  0  0  0  # atno 4183 bound_to 1244
  -13.4564   15.1636   60.7697 H   0  0  0  0  0  0  0  0  0  0  0  0  # atno 4268 bound_to 1114
  -16.3418   19.3134   57.9626 H   0  0  0  0  0  0  0  0  0  0  0  0  # atno 4280 bound_to 1130
  -10.4266   14.9001   56.9119 H   0  0  0  0  0  0  0  0  0  0  0  0  # atno 4409 bound_to 924 
  -15.1408    9.1166   77.8281 LP  0  0  0  0  0  0  0  0  0  0  0  0  # atno 4696 bound_to 1471
  -15.7244    7.6905   78.3686 LP  0  0  0  0  0  0  0  0  0  0  0  0  # atno 4697 bound_to 1471
  -15.4635   17.7102   75.1181 LP  0  0  0  0  0  0  0  0  0  0  0  0  # atno 4731 bound_to 414 
  -14.6666   17.0067   76.3578 LP  0  0  0  0  0  0  0  0  0  0  0  0  # atno 4732 bound_to 414 
  -14.0114   16.3219   61.7688 LP  0  0  0  0  0  0  0  0  0  0  0  0  # atno 4733 bound_to 1114
  -12.4456   15.8630   61.8360 LP  0  0  0  0  0  0  0  0  0  0  0  0  # atno 4734 bound_to 1114
  -11.9394   15.3453   56.5105 LP  0  0  0  0  0  0  0  0  0  0  0  0  # atno 4763 bound_to 924 
  -11.5048   15.2433   58.0813 LP  0  0  0  0  0  0  0  0  0  0  0  0  # atno 4764 bound_to 924 
  -20.2019   13.8301   64.3671 LP  0  0  0  0  0  0  0  0  0  0  0  0  # atno 4771 bound_to 1244
  -20.1065   13.1483   62.8863 LP  0  0  0  0  0  0  0  0  0  0  0  0  # atno 4772 bound_to 1244
   -6.8406   24.0024   72.3311 LP  0  0  0  0  0  0  0  0  0  0  0  0  # atno 4775 bound_to 178 
   -6.1772   22.8672   71.3626 LP  0  0  0  0  0  0  0  0  0  0  0  0  # atno 4776 bound_to 178 
   -3.5245   24.5464   72.1953 LP  0  0  0  0  0  0  0  0  0  0  0  0  # atno 4779 bound_to 171 
   -1.9822   24.6443   72.7228 LP  0  0  0  0  0  0  0  0  0  0  0  0  # atno 4780 bound_to 171 
   -8.7908   25.5757   63.8513 LP  0  0  0  0  0  0  0  0  0  0  0  0  # atno 4783 bound_to 185 
   -7.3801   25.4073   63.0463 LP  0  0  0  0  0  0  0  0  0  0  0  0  # atno 4784 bound_to 185 
   -3.6388   17.8357   72.8688 LP  0  0  0  0  0  0  0  0  0  0  0  0  # atno 4785 bound_to 346 
   -2.4399   16.7657   72.5781 LP  0  0  0  0  0  0  0  0  0  0  0  0  # atno 4786 bound_to 346 
   -2.6817   21.1728   75.7457 LP  0  0  0  0  0  0  0  0  0  0  0  0  # atno 4787 bound_to 339 
   -3.2093   22.2611   74.6486 LP  0  0  0  0  0  0  0  0  0  0  0  0  # atno 4788 bound_to 339 
   -7.3930   28.2345   65.5203 LP  0  0  0  0  0  0  0  0  0  0  0  0  # atno 4797 bound_to 154 
   -6.9792   29.7424   65.0495 LP  0  0  0  0  0  0  0  0  0  0  0  0  # atno 4798 bound_to 154 

> <Gold.Score>
     Score     S(PLP)   S(hbond)     S(cho)   S(metal)  DE(clash)   DE(tors)     intcor
     44.22     -43.51       0.00       0.42       0.00       0.38       0.09       0.00

> <Gold.PLP.Fitness>
44.2188

> <Gold.PLP.PLP>
-43.5079

> <Gold.PLP.part.hbond>
0.0000

> <Gold.PLP.part.metal>
0.0000

> <Gold.PLP.part.buried>
-6.5582

> <Gold.PLP.part.nonpolar>
-38.5980

> <Gold.PLP.part.repulsive>
0.3698

> <Gold.PLP.ligand.clash>
0.3846

> <Gold.PLP.ligand.torsion>
0.0894

> <Gold.PLP.Chemscore.Hbond>
0.0000

> <Gold.PLP.Chemscore.CHOScore>
0.4247

> <Gold.PLP.Chemscore.Metal>
0.0000

> <Gold.Chemscore.Hbonds>
donor molecule, donor type, donor heavy atom, donor atom, acceptor molecule, acceptor atom, score
      L1  C     7    18       P1  1449  0.42

> <Gold.PLP.Chemscore.Internal.Correction>
0.0001

