#       Name:                unknown
#       Creating user name   williammccorkindale
#       Creation time:       Tue Jun  7 14:55:41 2022


#       File generated by GOLD software.
#

@<TRIPOS>MOLECULE
unknown|prepared_Mpro-x0967|mol2|1|dock3
    41    41     1
SMALL
NO_CHARGES


@<TRIPOS>ATOM
      1 C1         -14.1449  15.2984  71.8328 C.3            1 RES1               0.0000
      2 C2         -12.9127  14.9220  71.0722 C.2            1 RES1               0.0000
      3 O3         -11.7817  15.1975  71.5387 O.2            1 RES1               0.0000
      4 N4         -12.9921  14.2591  69.7974 N.am           1 RES1               0.0000
      5 C5         -11.6479  14.0012  69.1991 C.3            1 RES1               0.0000
      6 C6         -11.8684  14.9024  67.9310 C.3            1 RES1               0.0000
      7 C7         -11.1457  16.0937  67.8761 C.ar           1 RES1               0.0000
      8 C8         -10.7812  17.1144  68.7140 C.ar           1 RES1               0.0000
      9 C9         -10.0563  18.1406  68.6218 C.ar           1 RES1               0.0000
     10 C10         -9.3691  18.4134  67.2836 C.ar           1 RES1               0.0000
     11 C11         -9.6990  17.4455  66.4024 C.ar           1 RES1               0.0000
     12 C12        -10.4766  16.3749  66.5226 C.ar           1 RES1               0.0000
     13 O13         -8.5202  19.4333  67.2270 O.3            1 RES1               0.0000
     14 C14        -11.6340  12.5648  68.8049 C.2            1 RES1               0.0000
     15 O15        -12.2589  11.9143  67.9594 O.2            1 RES1               0.0000
     16 N16        -10.6932  11.7789  69.6043 N.am           1 RES1               0.0000
     17 C17        -10.5757  10.6119  69.3540 C.3            1 RES1               0.0000
     18 C18        -10.7329   9.3474  70.5820 C.1            1 RES1               0.0000
     19 C19        -10.8695   8.1580  71.7203 C.1            1 RES1               0.0000
     20 Br20       -11.0358   6.8698  72.9670 Br             1 RES1               0.0000
     21 H21        -14.7207  16.0012  71.2172 H              1 RES1               0.0000
     22 H22        -14.7616  14.4113  72.0721 H              1 RES1               0.0000
     23 H23        -13.8312  15.8199  72.7812 H              1 RES1               0.0000
     24 H24        -13.8126  14.0221  69.3338 H              1 RES1               0.0000
     25 H25        -10.8049  14.2839  69.7602 H              1 RES1               0.0000
     26 H26        -12.9047  14.9226  67.6875 H              1 RES1               0.0000
     27 H27        -11.4635  14.1210  67.1097 H              1 RES1               0.0000
     28 H28        -11.4204  17.0966  69.6515 H              1 RES1               0.0000
     29 H29         -9.7525  18.9322  69.3113 H              1 RES1               0.0000
     30 H30         -9.2486  17.6145  65.3583 H              1 RES1               0.0000
     31 H31        -10.7551  15.6121  65.8175 H              1 RES1               0.0000
     32 H32         -7.9081  19.6979  66.5045 H              1 RES1               0.0000
     33 H33        -10.1049  12.2406  70.3135 H              1 RES1               0.0000
     34 H34        -11.3764   9.8990  68.7683 H              1 RES1               0.0000
     35 H35         -9.6429   9.9447  68.9547 H              1 RES1               0.0000
     36 ****       -11.7045  15.6680  72.4177 LP             1 RES1               0.0000
     37 ****       -10.9571  14.9467  71.0317 LP             1 RES1               0.0000
     38 ****        -7.9241  19.3018  68.0191 LP             1 RES1               0.0000
     39 ****        -9.0938  20.2395  67.3717 LP             1 RES1               0.0000
     40 ****       -12.9328  12.3687  67.3767 LP             1 RES1               0.0000
     41 ****       -12.0906  10.9338  67.8581 LP             1 RES1               0.0000
@<TRIPOS>BOND
    1    1    2 1     
    2    2    3 2     
    3    2    4 am    
    4    4    5 1     
    5    5    6 1     
    6    6    7 1     
    7    7    8 ar    
    8    8    9 ar    
    9    9   10 ar    
   10   10   11 ar    
   11   11   12 ar    
   12   10   13 1     
   13    5   14 1     
   14   14   15 2     
   15   14   16 am    
   16   16   17 1     
   17   17   18 1     
   18   18   19 3     
   19   19   20 1     
   20   12    7 ar    
   21    1   21 1     
   22    1   22 1     
   23    1   23 1     
   24    4   24 1     
   25    5   25 1     
   26    6   26 1     
   27    6   27 1     
   28    8   28 1     
   29    9   29 1     
   30   11   30 1     
   31   12   31 1     
   32   13   32 1     
   33   16   33 1     
   34   17   34 1     
   35   17   35 1     
   36    3   36 1     
   37    3   37 1     
   38   13   38 1     
   39   13   39 1     
   40   15   40 1     
   41   15   41 1     
@<TRIPOS>SUBSTRUCTURE
      1 RES1           1
@<TRIPOS>SET
LONE_PAIRS      STATIC     ATOMS    <user>   **** ""
6 36 37 38 39 40 41
DONOR_HYDROGENS      STATIC     ATOMS    <user>   **** ""
3 24 32 33
ATOM$BLUE        STATIC     ATOMS    COLORGROUP SYSTEM
6 36 37 38 39 40 41
ATOM$RED        STATIC     ATOMS    COLORGROUP SYSTEM
3 24 32 33
@<TRIPOS>COMMENT
> <Gold.Version>
2022.1.0

> <Gold.Id.Protein>
6LU7|6LU7_protein|mol2

> <Gold.Protein.RotatedTorsions>
[ 3973 1471 1470 1467 ] final -103.90 input   60.00 | X-H torsion
[ 3372  414  413  411 ] final -147.28 input   60.00 | X-H torsion
[ 4268 1114 1113 1110 ] final -111.24 input   59.99 | X-H torsion
[ 4409  924  923  921 ] final -115.06 input   59.99 | X-H torsion
[ 4183 1244 1243 1241 ] final -113.42 input   59.99 | X-H torsion
[ 3800  178  177  174 ] final  106.82 input   60.00 | X-H torsion
[ 3793  171  170  167 ] final   66.83 input   60.00 | X-H torsion
[ 3576  185  184  181 ] final  -48.46 input   60.00 | X-H torsion
[ 3523  346  345  342 ] final -140.09 input   60.01 | X-H torsion
[ 3515  339  338  335 ] final   73.04 input   60.00 | X-H torsion
[ 3663  154  153  150 ] final -171.95 input   60.00 | X-H torsion
[ 4280 1130 1129 1126 ] final  -88.49 input   60.00 | X-H torsion

> <Gold.Protein.ActiveResidues>
 VAL20   THR21   CYS22   GLY23   THR24   THR25   THR26   LEU27   ASN28   PRO39  
 ARG40   HIS41   VAL42   CYS44   THR45   SER46   ASP48   MET49   LEU50   PRO52  
 TYR54   TYR118  ASN119  ILE136  GLY138  SER139  PHE140  LEU141  ASN142  GLY143 
 SER144  CYS145  GLY146  SER147  TYR161  HIS163  HIS164  MET165  GLU166  LEU167 
 PRO168  THR169  GLY170  VAL171  HIS172  ALA173  PHE181  PHE185  VAL186  ASP187 
 ARG188  GLN189  THR190  ALA191  GLN192  ALA193 

> <Gold.Protein.RotatedAtoms>
  -15.4560   17.1047   75.7639 H   0  0  0  0  0  0  0  0  0  0  0  0  # atno 3372 bound_to 414 
   -3.5000   21.9237   74.2824 H   0  0  0  0  0  0  0  0  0  0  0  0  # atno 3515 bound_to 339 
   -2.2680   16.8370   72.6198 H   0  0  0  0  0  0  0  0  0  0  0  0  # atno 3523 bound_to 346 
   -8.4714   25.1453   63.5531 H   0  0  0  0  0  0  0  0  0  0  0  0  # atno 3576 bound_to 185 
   -6.7897   29.4742   65.1415 H   0  0  0  0  0  0  0  0  0  0  0  0  # atno 3663 bound_to 154 
   -3.2604   23.6742   71.7494 H   0  0  0  0  0  0  0  0  0  0  0  0  # atno 3793 bound_to 171 
   -7.0622   23.9203   72.4280 H   0  0  0  0  0  0  0  0  0  0  0  0  # atno 3800 bound_to 178 
  -15.1795    9.0943   77.9318 H   0  0  0  0  0  0  0  0  0  0  0  0  # atno 3973 bound_to 1471
  -20.0228   13.9207   64.0779 H   0  0  0  0  0  0  0  0  0  0  0  0  # atno 4183 bound_to 1244
  -12.4956   15.3436   61.2836 H   0  0  0  0  0  0  0  0  0  0  0  0  # atno 4268 bound_to 1114
  -16.4239   19.7194   58.0124 H   0  0  0  0  0  0  0  0  0  0  0  0  # atno 4280 bound_to 1130
  -11.8079   15.3339   57.9268 H   0  0  0  0  0  0  0  0  0  0  0  0  # atno 4409 bound_to 924 
  -15.7237    7.6044   78.2951 LP  0  0  0  0  0  0  0  0  0  0  0  0  # atno 4696 bound_to 1471
  -15.1322    7.9202   76.8062 LP  0  0  0  0  0  0  0  0  0  0  0  0  # atno 4697 bound_to 1471
  -13.9617   17.5351   76.2431 LP  0  0  0  0  0  0  0  0  0  0  0  0  # atno 4731 bound_to 414 
  -14.6730   18.3027   74.9895 LP  0  0  0  0  0  0  0  0  0  0  0  0  # atno 4732 bound_to 414 
  -14.0767   15.5574   60.9636 LP  0  0  0  0  0  0  0  0  0  0  0  0  # atno 4733 bound_to 1114
  -13.3479   16.4462   62.1237 LP  0  0  0  0  0  0  0  0  0  0  0  0  # atno 4734 bound_to 1114
  -10.3896   14.8931   57.2620 LP  0  0  0  0  0  0  0  0  0  0  0  0  # atno 4763 bound_to 924 
  -11.6634   15.2586   56.3077 LP  0  0  0  0  0  0  0  0  0  0  0  0  # atno 4764 bound_to 924 
  -20.3125   12.8615   62.8770 LP  0  0  0  0  0  0  0  0  0  0  0  0  # atno 4771 bound_to 1244
  -21.0344   12.6711   64.3293 LP  0  0  0  0  0  0  0  0  0  0  0  0  # atno 4772 bound_to 1244
   -6.0853   23.1000   71.4176 LP  0  0  0  0  0  0  0  0  0  0  0  0  # atno 4775 bound_to 178 
   -7.4668   22.4162   71.9566 LP  0  0  0  0  0  0  0  0  0  0  0  0  # atno 4776 bound_to 178 
   -2.9349   24.9943   72.6433 LP  0  0  0  0  0  0  0  0  0  0  0  0  # atno 4779 bound_to 171 
   -1.7618   23.8989   72.3423 LP  0  0  0  0  0  0  0  0  0  0  0  0  # atno 4780 bound_to 171 
   -7.1492   25.9758   63.0949 LP  0  0  0  0  0  0  0  0  0  0  0  0  # atno 4783 bound_to 185 
   -8.3273   26.7172   63.9488 LP  0  0  0  0  0  0  0  0  0  0  0  0  # atno 4784 bound_to 185 
   -2.2377   18.3678   73.1709 LP  0  0  0  0  0  0  0  0  0  0  0  0  # atno 4785 bound_to 346 
   -3.6613   17.6576   72.8029 LP  0  0  0  0  0  0  0  0  0  0  0  0  # atno 4786 bound_to 346 
   -3.3183   20.4428   74.9321 LP  0  0  0  0  0  0  0  0  0  0  0  0  # atno 4787 bound_to 339 
   -2.6475   21.7434   75.6568 LP  0  0  0  0  0  0  0  0  0  0  0  0  # atno 4788 bound_to 339 
   -8.4086   29.6171   65.0570 LP  0  0  0  0  0  0  0  0  0  0  0  0  # atno 4797 bound_to 154 
   -7.7338   28.2046   65.5221 LP  0  0  0  0  0  0  0  0  0  0  0  0  # atno 4798 bound_to 154 

> <Gold.Score>
     Score     S(PLP)   S(hbond)     S(cho)   S(metal)  DE(clash)   DE(tors)     intcor
     43.90     -38.59       2.40       0.00       0.00       0.00       1.29       0.68

> <Gold.PLP.Fitness>
43.8989

> <Gold.PLP.PLP>
-38.5874

> <Gold.PLP.part.hbond>
-3.0000

> <Gold.PLP.part.metal>
0.0000

> <Gold.PLP.part.buried>
-4.3507

> <Gold.PLP.part.nonpolar>
-32.4873

> <Gold.PLP.part.repulsive>
0.2548

> <Gold.PLP.ligand.clash>
0.0000

> <Gold.PLP.ligand.torsion>
1.2890

> <Gold.PLP.Chemscore.Hbond>
2.4025

> <Gold.PLP.Chemscore.CHOScore>
0.0000

> <Gold.PLP.Chemscore.Metal>
0.0000

> <Gold.Chemscore.Hbonds>
donor molecule, donor type, donor heavy atom, donor atom, acceptor molecule, acceptor atom, score
      L1  H     4    24       P1  1266  0.40
      L1  H    16    33       P1  1464  1.00
      P1  H  1281  4132       L1    15  1.00

> <Gold.PLP.Chemscore.Internal.Correction>
0.6821

