#       Name:                unknown
#       Creating user name   williammccorkindale
#       Creation time:       Tue Jun  7 14:55:36 2022


#       File generated by GOLD software.
#

@<TRIPOS>MOLECULE
unknown|prepared_Mpro-x0195|mol2|1|dock5
    30    31     1
SMALL
NO_CHARGES


@<TRIPOS>ATOM
      1 C1         -11.9117  16.5573  73.1526 C.3            1 RES1               0.0000
      2 N2         -12.6162  15.5590  72.4054 N.pl3          1 RES1               0.0000
      3 C3         -13.8230  14.9744  72.9861 C.3            1 RES1               0.0000
      4 C4         -14.3210  13.8142  72.1566 C.3            1 RES1               0.0000
      5 C5         -13.1885  12.9969  71.6019 C.3            1 RES1               0.0000
      6 C6         -12.4139  13.8599  70.6741 C.ar           1 RES1               0.0000
      7 C7         -11.9696  13.4608  69.4518 C.ar           1 RES1               0.0000
      8 C8         -11.2560  14.3489  68.6757 C.ar           1 RES1               0.0000
      9 C9         -10.9843  15.6288  69.1113 C.ar           1 RES1               0.0000
     10 C10        -11.4350  16.0273  70.3461 C.ar           1 RES1               0.0000
     11 C11        -12.1446  15.1475  71.1205 C.ar           1 RES1               0.0000
     12 S12        -10.0869  16.7632  68.1489 S.o2           1 RES1               0.0000
     13 O13        -10.3885  16.5646  66.7016 O.2            1 RES1               0.0000
     14 O14        -10.4994  18.1778  68.5000 O.2            1 RES1               0.0000
     15 N15         -8.3961  16.5921  68.4400 N.3            1 RES1               0.0000
     16 H16        -11.8485  16.2149  74.2069 H              1 RES1               0.0000
     17 H17        -12.4532  17.5443  73.1497 H              1 RES1               0.0000
     18 H18        -10.8753  16.7228  72.8080 H              1 RES1               0.0000
     19 H19        -14.6312  15.7297  73.0536 H              1 RES1               0.0000
     20 H20        -13.6410  14.5912  74.0083 H              1 RES1               0.0000
     21 H21        -14.9780  13.1755  72.7561 H              1 RES1               0.0000
     22 H22        -14.9100  14.2167  71.3130 H              1 RES1               0.0000
     23 H23        -13.6082  12.1024  71.1069 H              1 RES1               0.0000
     24 H24        -12.5150  12.7374  72.4453 H              1 RES1               0.0000
     25 H25        -12.1966  12.4526  69.1355 H              1 RES1               0.0000
     26 H26        -10.9095  14.0224  67.7104 H              1 RES1               0.0000
     27 H27        -11.2524  17.0219  70.7460 H              1 RES1               0.0000
     28 H28         -7.9456  17.4875  68.6464 H              1 RES1               0.0000
     29 H29         -7.9779  16.2026  67.5671 H              1 RES1               0.0000
     30 ****        -8.2582  15.9991  69.2333 LP             1 RES1               0.0000
@<TRIPOS>BOND
    1    1    2 1     
    2    2    3 1     
    3    3    4 1     
    4    4    5 1     
    5    5    6 1     
    6    6    7 ar    
    7    7    8 ar    
    8    8    9 ar    
    9    9   10 ar    
   10   10   11 ar    
   11    9   12 1     
   12   12   13 2     
   13   12   14 2     
   14   12   15 1     
   15   11    2 1     
   16    6   11 ar    
   17    1   16 1     
   18    1   17 1     
   19    1   18 1     
   20    3   19 1     
   21    3   20 1     
   22    4   21 1     
   23    4   22 1     
   24    5   23 1     
   25    5   24 1     
   26    7   25 1     
   27    8   26 1     
   28   10   27 1     
   29   15   28 1     
   30   15   29 1     
   31   15   30 1     
@<TRIPOS>SUBSTRUCTURE
      1 RES1           1
@<TRIPOS>SET
LONE_PAIRS      STATIC     ATOMS    <user>   **** ""
3 13 14 30
DONOR_HYDROGENS      STATIC     ATOMS    <user>   **** ""
2 28 29
ATOM$BLUE        STATIC     ATOMS    COLORGROUP SYSTEM
3 13 14 30
ATOM$RED        STATIC     ATOMS    COLORGROUP SYSTEM
2 28 29
@<TRIPOS>COMMENT
> <Gold.Version>
2022.1.0

> <Gold.Id.Protein>
6LU7|6LU7_protein|mol2

> <Gold.Protein.RotatedTorsions>
[ 3973 1471 1470 1467 ] final  118.88 input   60.00 | X-H torsion
[ 3372  414  413  411 ] final  112.61 input   60.00 | X-H torsion
[ 4268 1114 1113 1110 ] final   49.84 input   59.99 | X-H torsion
[ 4409  924  923  921 ] final  -24.71 input   59.99 | X-H torsion
[ 4183 1244 1243 1241 ] final   51.89 input   59.99 | X-H torsion
[ 3800  178  177  174 ] final   72.65 input   60.00 | X-H torsion
[ 3793  171  170  167 ] final  -26.01 input   60.00 | X-H torsion
[ 3576  185  184  181 ] final   27.22 input   60.00 | X-H torsion
[ 3523  346  345  342 ] final  -82.71 input   60.01 | X-H torsion
[ 3515  339  338  335 ] final   62.30 input   60.00 | X-H torsion
[ 3663  154  153  150 ] final  -23.34 input   60.00 | X-H torsion
[ 4280 1130 1129 1126 ] final -178.57 input   60.00 | X-H torsion

> <Gold.Protein.ActiveResidues>
 VAL20   THR21   CYS22   GLY23   THR24   THR25   THR26   LEU27   ASN28   PRO39  
 ARG40   HIS41   VAL42   CYS44   THR45   SER46   ASP48   MET49   LEU50   PRO52  
 TYR54   TYR118  ASN119  ILE136  GLY138  SER139  PHE140  LEU141  ASN142  GLY143 
 SER144  CYS145  GLY146  SER147  TYR161  HIS163  HIS164  MET165  GLU166  LEU167 
 PRO168  THR169  GLY170  VAL171  HIS172  ALA173  PHE181  PHE185  VAL186  ASP187 
 ARG188  GLN189  THR190  ALA191  GLN192  ALA193 

> <Gold.Protein.RotatedAtoms>
  -14.1650   17.3092   76.3572 H   0  0  0  0  0  0  0  0  0  0  0  0  # atno 3372 bound_to 414 
   -3.5656   21.7752   74.2169 H   0  0  0  0  0  0  0  0  0  0  0  0  # atno 3515 bound_to 339 
   -3.1645   16.8542   72.5553 H   0  0  0  0  0  0  0  0  0  0  0  0  # atno 3523 bound_to 346 
   -8.7582   26.1582   64.0128 H   0  0  0  0  0  0  0  0  0  0  0  0  # atno 3576 bound_to 185 
   -8.1681   28.3587   65.4656 H   0  0  0  0  0  0  0  0  0  0  0  0  # atno 3663 bound_to 154 
   -3.2950   24.8414   72.4394 H   0  0  0  0  0  0  0  0  0  0  0  0  # atno 3793 bound_to 171 
   -6.5847   24.0071   72.1692 H   0  0  0  0  0  0  0  0  0  0  0  0  # atno 3800 bound_to 178 
  -15.6940    7.4346   78.0729 H   0  0  0  0  0  0  0  0  0  0  0  0  # atno 3973 bound_to 1471
  -20.9814   12.3843   63.6669 H   0  0  0  0  0  0  0  0  0  0  0  0  # atno 4183 bound_to 1244
  -13.9341   16.3628   61.8337 H   0  0  0  0  0  0  0  0  0  0  0  0  # atno 4268 bound_to 1114
  -15.8890   18.6142   58.5099 H   0  0  0  0  0  0  0  0  0  0  0  0  # atno 4280 bound_to 1130
  -12.0148   15.3722   56.6156 H   0  0  0  0  0  0  0  0  0  0  0  0  # atno 4409 bound_to 924 
  -15.0489    8.1889   76.7833 LP  0  0  0  0  0  0  0  0  0  0  0  0  # atno 4696 bound_to 1471
  -15.2889    9.0073   78.1759 LP  0  0  0  0  0  0  0  0  0  0  0  0  # atno 4697 bound_to 1471
  -14.3801   18.3491   75.1241 LP  0  0  0  0  0  0  0  0  0  0  0  0  # atno 4731 bound_to 414 
  -15.5547   17.2827   75.5110 LP  0  0  0  0  0  0  0  0  0  0  0  0  # atno 4732 bound_to 414 
  -12.4145   15.7848   61.7667 LP  0  0  0  0  0  0  0  0  0  0  0  0  # atno 4733 bound_to 1114
  -13.5613   15.1923   60.7666 LP  0  0  0  0  0  0  0  0  0  0  0  0  # atno 4734 bound_to 1114
  -11.3799   15.2061   58.1046 LP  0  0  0  0  0  0  0  0  0  0  0  0  # atno 4763 bound_to 924 
  -10.4648   14.9070   56.7856 LP  0  0  0  0  0  0  0  0  0  0  0  0  # atno 4764 bound_to 924 
  -20.4439   13.6175   64.5825 LP  0  0  0  0  0  0  0  0  0  0  0  0  # atno 4771 bound_to 1244
  -19.9375   13.4625   63.0377 LP  0  0  0  0  0  0  0  0  0  0  0  0  # atno 4772 bound_to 1244
   -6.3521   22.6190   71.3525 LP  0  0  0  0  0  0  0  0  0  0  0  0  # atno 4775 bound_to 178 
   -7.6809   22.8097   72.2823 LP  0  0  0  0  0  0  0  0  0  0  0  0  # atno 4776 bound_to 178 
   -1.7731   24.2798   72.5675 LP  0  0  0  0  0  0  0  0  0  0  0  0  # atno 4779 bound_to 171 
   -2.8888   23.4378   71.7232 LP  0  0  0  0  0  0  0  0  0  0  0  0  # atno 4780 bound_to 171 
   -7.8608   25.0700   63.2013 LP  0  0  0  0  0  0  0  0  0  0  0  0  # atno 4783 bound_to 185 
   -7.3268   26.6029   63.3795 LP  0  0  0  0  0  0  0  0  0  0  0  0  # atno 4784 bound_to 185 
   -1.7814   17.6214   72.9382 LP  0  0  0  0  0  0  0  0  0  0  0  0  # atno 4785 bound_to 346 
   -3.2149   18.3866   73.1006 LP  0  0  0  0  0  0  0  0  0  0  0  0  # atno 4786 bound_to 346 
   -3.2237   20.4393   75.0809 LP  0  0  0  0  0  0  0  0  0  0  0  0  # atno 4787 bound_to 339 
   -2.6760   21.8965   75.5740 LP  0  0  0  0  0  0  0  0  0  0  0  0  # atno 4788 bound_to 339 
   -6.7019   29.0397   65.2795 LP  0  0  0  0  0  0  0  0  0  0  0  0  # atno 4797 bound_to 154 
   -8.0523   29.9054   64.9733 LP  0  0  0  0  0  0  0  0  0  0  0  0  # atno 4798 bound_to 154 

> <Gold.Score>
     Score     S(PLP)   S(hbond)     S(cho)   S(metal)  DE(clash)   DE(tors)     intcor
     40.12     -40.23       0.00       0.00       0.00       0.00       1.15       2.19

> <Gold.PLP.Fitness>
40.1249

> <Gold.PLP.PLP>
-40.2346

> <Gold.PLP.part.hbond>
0.0000

> <Gold.PLP.part.metal>
0.0000

> <Gold.PLP.part.buried>
-5.9369

> <Gold.PLP.part.nonpolar>
-35.4154

> <Gold.PLP.part.repulsive>
0.1093

> <Gold.PLP.ligand.clash>
0.0000

> <Gold.PLP.ligand.torsion>
1.1510

> <Gold.PLP.Chemscore.Hbond>
0.0000

> <Gold.PLP.Chemscore.CHOScore>
0.0000

> <Gold.PLP.Chemscore.Metal>
0.0000

> <Gold.PLP.Chemscore.Internal.Correction>
2.1923

