unknown|prepared_Mpro-x0072|sdf|1|dock5
  -GOLD-   5 72214353D 1   1.00000     0.00000

 26 26  0  0  0  0  0  0  0  0  1 V2000
   -8.5776   16.5059   67.1248 C   0  0  0  0  0  0  0  0  0  0  0  0
  -10.2839   16.6572   66.7275 S   0  0  0  0  0  0  0  0  0  0  0  0
  -10.4172   17.5114   65.5014 O   0  0  0  0  0  0  0  0  0  0  0  0
  -10.8738   15.3159   66.4314 O   0  0  0  0  0  0  0  0  0  0  0  0
  -11.0946   17.3670   68.0813 N   0  0  0  0  0  0  0  0  0  0  0  0
  -10.8544   16.5155   69.2285 C   0  0  0  0  0  0  0  0  0  0  0  0
  -11.9361   15.4821   69.4078 C   0  0  0  0  0  0  0  0  0  0  0  0
  -12.3384   15.3053   70.8124 C   0  0  0  0  0  0  0  0  0  0  0  0
  -13.4845   14.6647   71.2150 C   0  0  0  0  0  0  0  0  0  0  0  0
  -13.8110   14.5281   72.5365 C   0  0  0  0  0  0  0  0  0  0  0  0
  -13.0033   15.0280   73.5327 C   0  0  0  0  0  0  0  0  0  0  0  0
  -11.8472   15.6750   73.1484 C   0  0  0  0  0  0  0  0  0  0  0  0
  -11.5199   15.8111   71.8010 C   0  0  0  0  0  0  0  0  0  0  0  0
   -8.2885   15.4424   67.1329 H   0  0  0  0  0  0  0  0  0  0  0  0
   -7.9101   17.0216   66.4103 H   0  0  0  0  0  0  0  0  0  0  0  0
   -8.3392   16.9068   68.1308 H   0  0  0  0  0  0  0  0  0  0  0  0
  -10.8373   18.3452   68.2313 H   0  0  0  0  0  0  0  0  0  0  0  0
  -10.8689   17.1701   70.1248 H   0  0  0  0  0  0  0  0  0  0  0  0
   -9.8906   16.0026   69.1773 H   0  0  0  0  0  0  0  0  0  0  0  0
  -12.8216   15.8203   68.8317 H   0  0  0  0  0  0  0  0  0  0  0  0
  -11.6406   14.5031   68.9343 H   0  0  0  0  0  0  0  0  0  0  0  0
  -14.1383   14.2626   70.4771 H   0  0  0  0  0  0  0  0  0  0  0  0
  -14.7171   14.0207   72.8282 H   0  0  0  0  0  0  0  0  0  0  0  0
  -13.2102   14.9492   74.5756 H   0  0  0  0  0  0  0  0  0  0  0  0
  -11.1840   16.0837   73.9186 H   0  0  0  0  0  0  0  0  0  0  0  0
  -10.6144   16.3191   71.5330 H   0  0  0  0  0  0  0  0  0  0  0  0
  1  2  1  0  0  0  0
  2  3  2  0  0  0  0
  2  4  2  0  0  0  0
  2  5  1  0  0  0  0
  5  6  1  0  0  0  0
  6  7  1  0  0  0  0
  7  8  1  0  0  0  0
  8  9  2  0  0  0  0
  9 10  1  0  0  0  0
 10 11  2  0  0  0  0
 11 12  1  0  0  0  0
 12 13  2  0  0  0  0
  8 13  1  0  0  0  0
  1 14  1  0  0  0  0
  1 15  1  0  0  0  0
  1 16  1  0  0  0  0
  5 17  1  0  0  0  0
  6 18  1  0  0  0  0
  6 19  1  0  0  0  0
  7 20  1  0  0  0  0
  7 21  1  0  0  0  0
  9 22  1  0  0  0  0
 10 23  1  0  0  0  0
 11 24  1  0  0  0  0
 12 25  1  0  0  0  0
 13 26  1  0  0  0  0
M  END
> <Gold.Version>
2022.1.0

> <Gold.Id.Protein>
6LU7|6LU7_protein|mol2

> <Gold.PLP.Fitness>
41.6538

> <Gold.PLP.PLP>
-40.0593

> <Gold.PLP.part.hbond>
-1.7093

> <Gold.PLP.part.metal>
0.0000

> <Gold.PLP.part.buried>
-5.9211

> <Gold.PLP.part.nonpolar>
-33.6177

> <Gold.PLP.part.repulsive>
0.0563

> <Gold.PLP.ligand.clash>
0.0387

> <Gold.PLP.ligand.torsion>
0.7137

> <Gold.PLP.Chemscore.Hbond>
1.0000

> <Gold.PLP.Chemscore.CHOScore>
0.0000

> <Gold.PLP.Chemscore.Metal>
0.0000

> <Gold.Chemscore.Hbonds>
donor molecule, donor type, donor heavy atom, donor atom, acceptor molecule, acceptor atom, score
      P1  H  1105  4261       L1     3  1.00

> <Gold.PLP.Chemscore.Internal.Correction>
0.0605

> <Gold.Protein.RotatedTorsions>
[ 3973 1471 1470 1467 ] final  120.65 input   60.00 | X-H torsion
[ 3372  414  413  411 ] final -100.63 input   60.00 | X-H torsion
[ 4268 1114 1113 1110 ] final -131.53 input   59.99 | X-H torsion
[ 4409  924  923  921 ] final  -64.85 input   59.99 | X-H torsion
[ 4183 1244 1243 1241 ] final  176.37 input   59.99 | X-H torsion
[ 3800  178  177  174 ] final  -36.80 input   60.00 | X-H torsion
[ 3793  171  170  167 ] final  -92.64 input   60.00 | X-H torsion
[ 3576  185  184  181 ] final  -36.46 input   60.00 | X-H torsion
[ 3523  346  345  342 ] final -167.84 input   60.01 | X-H torsion
[ 3515  339  338  335 ] final -122.27 input   60.00 | X-H torsion
[ 3663  154  153  150 ] final   87.85 input   60.00 | X-H torsion
[ 4280 1130 1129 1126 ] final -106.00 input   60.00 | X-H torsion

> <Gold.Protein.ActiveResidues>
 VAL20   THR21   CYS22   GLY23   THR24   THR25   THR26   LEU27   ASN28   PRO39  
 ARG40   HIS41   VAL42   CYS44   THR45   SER46   ASP48   MET49   LEU50   PRO52  
 TYR54   TYR118  ASN119  ILE136  GLY138  SER139  PHE140  LEU141  ASN142  GLY143 
 SER144  CYS145  GLY146  SER147  TYR161  HIS163  HIS164  MET165  GLU166  LEU167 
 PRO168  THR169  GLY170  VAL171  HIS172  ALA173  PHE181  PHE185  VAL186  ASP187 
 ARG188  GLN189  THR190  ALA191  GLN192  ALA193 

> <Gold.Protein.RotatedAtoms>
  -15.5153   17.5948   75.2108 H   0  0  0  0  0  0  0  0  0  0  0  0  # atno 3372 bound_to 414 
   -2.7254   21.0358   75.7160 H   0  0  0  0  0  0  0  0  0  0  0  0  # atno 3515 bound_to 339 
   -1.9402   17.1165   72.7463 H   0  0  0  0  0  0  0  0  0  0  0  0  # atno 3523 bound_to 346 
   -8.6012   25.2512   63.6545 H   0  0  0  0  0  0  0  0  0  0  0  0  # atno 3576 bound_to 185 
   -8.1737   29.8307   64.9967 H   0  0  0  0  0  0  0  0  0  0  0  0  # atno 3663 bound_to 154 
   -2.3208   24.8906   72.7650 H   0  0  0  0  0  0  0  0  0  0  0  0  # atno 3793 bound_to 171 
   -6.2502   22.7586   71.3530 H   0  0  0  0  0  0  0  0  0  0  0  0  # atno 3800 bound_to 178 
  -15.6980    7.4494   78.0973 H   0  0  0  0  0  0  0  0  0  0  0  0  # atno 3973 bound_to 1471
  -19.9204   13.5162   63.0853 H   0  0  0  0  0  0  0  0  0  0  0  0  # atno 4183 bound_to 1244
  -12.6907   15.1941   61.0636 H   0  0  0  0  0  0  0  0  0  0  0  0  # atno 4268 bound_to 1114
  -16.3770   19.4432   57.9602 H   0  0  0  0  0  0  0  0  0  0  0  0  # atno 4280 bound_to 1130
  -12.1818   15.4336   57.2331 H   0  0  0  0  0  0  0  0  0  0  0  0  # atno 4409 bound_to 924 
  -15.0563    8.1608   76.7820 LP  0  0  0  0  0  0  0  0  0  0  0  0  # atno 4696 bound_to 1471
  -15.2774    9.0204   78.1527 LP  0  0  0  0  0  0  0  0  0  0  0  0  # atno 4697 bound_to 1471
  -14.5232   17.0646   76.3867 LP  0  0  0  0  0  0  0  0  0  0  0  0  # atno 4731 bound_to 414 
  -14.0517   18.2796   75.4029 LP  0  0  0  0  0  0  0  0  0  0  0  0  # atno 4732 bound_to 414 
  -14.2005   15.7930   61.1624 LP  0  0  0  0  0  0  0  0  0  0  0  0  # atno 4733 bound_to 1114
  -13.0276   16.3611   62.1464 LP  0  0  0  0  0  0  0  0  0  0  0  0  # atno 4734 bound_to 1114
  -10.7792   15.0227   57.9485 LP  0  0  0  0  0  0  0  0  0  0  0  0  # atno 4763 bound_to 924 
  -10.8973   15.0285   56.3198 LP  0  0  0  0  0  0  0  0  0  0  0  0  # atno 4764 bound_to 924 
  -20.9589   12.3729   63.5976 LP  0  0  0  0  0  0  0  0  0  0  0  0  # atno 4771 bound_to 1244
  -20.4910   13.5672   64.6083 LP  0  0  0  0  0  0  0  0  0  0  0  0  # atno 4772 bound_to 1244
   -7.6429   22.6682   72.1898 LP  0  0  0  0  0  0  0  0  0  0  0  0  # atno 4775 bound_to 178 
   -6.7269   24.0178   72.2669 LP  0  0  0  0  0  0  0  0  0  0  0  0  # atno 4776 bound_to 178 
   -2.0867   23.4784   71.9913 LP  0  0  0  0  0  0  0  0  0  0  0  0  # atno 4779 bound_to 171 
   -3.5565   24.1896   71.9715 LP  0  0  0  0  0  0  0  0  0  0  0  0  # atno 4780 bound_to 171 
   -7.1853   25.7858   63.0567 LP  0  0  0  0  0  0  0  0  0  0  0  0  # atno 4783 bound_to 185 
   -8.1605   26.8006   63.8849 LP  0  0  0  0  0  0  0  0  0  0  0  0  # atno 4784 bound_to 185 
   -2.6688   18.5036   73.1858 LP  0  0  0  0  0  0  0  0  0  0  0  0  # atno 4785 bound_to 346 
   -3.5605   17.2404   72.6606 LP  0  0  0  0  0  0  0  0  0  0  0  0  # atno 4786 bound_to 346 
   -3.1284   22.2946   74.7669 LP  0  0  0  0  0  0  0  0  0  0  0  0  # atno 4787 bound_to 339 
   -3.6175   20.7859   74.3782 LP  0  0  0  0  0  0  0  0  0  0  0  0  # atno 4788 bound_to 339 
   -8.0461   28.2850   65.4894 LP  0  0  0  0  0  0  0  0  0  0  0  0  # atno 4797 bound_to 154 
   -6.7025   29.1776   65.2356 LP  0  0  0  0  0  0  0  0  0  0  0  0  # atno 4798 bound_to 154 

$$$$
