#       Name:                /Users/williammccorkindale/ml_physics/smi2wyck/notebooks/docking/mpro_fragments/prepared_Mpro-x2193.mol2
#       Creating user name   williammccorkindale
#       Creation time:       Tue Jun  7 14:55:39 2022


#       File generated by GOLD software.
#

@<TRIPOS>MOLECULE
/Users/williammccorkindale/ml_physics/smi2wyck/notebooks/docking/mpro_fragments/prepared_Mpro-x2193.mol2
    33    34     1
SMALL
NO_CHARGES


@<TRIPOS>ATOM
      1 C1           5.0569   0.9090   0.0824 C.3            1 RES1               0.0000
      2 S2           4.3141  -0.4994  -0.7344 S.o2           1 RES1               0.0000
      3 O3           4.7570  -1.7656  -0.0306 O.2            1 RES1               0.0000
      4 O4           4.6802  -0.5419  -2.1826 O.2            1 RES1               0.0000
      5 C5           2.5846  -0.3757  -0.4995 C.ar           1 RES1               0.0000
      6 C6           1.9523  -0.9436   0.5855 C.ar           1 RES1               0.0000
      7 C7           0.5940  -0.8551   0.7840 C.ar           1 RES1               0.0000
      8 C8          -0.2157  -0.1769  -0.1169 C.ar           1 RES1               0.0000
      9 C9           0.4075   0.3920  -1.2013 C.ar           1 RES1               0.0000
     10 C10          1.7667   0.2940  -1.3847 C.ar           1 RES1               0.0000
     11 N11         -1.6221  -0.0737   0.0790 N.pl3          1 RES1               0.0000
     12 C12         -2.3998   0.5454  -0.9698 C.3            1 RES1               0.0000
     13 C13         -3.8481   0.0976  -0.7213 C.3            1 RES1               0.0000
     14 N14         -4.2102   0.6294   0.5610 N.3            1 RES1               0.0000
     15 C15         -3.5648  -0.1205   1.6088 C.3            1 RES1               0.0000
     16 C16         -2.1917  -0.5745   1.2864 C.3            1 RES1               0.0000
     17 H17          4.5903   0.9787   1.0864 H              1 RES1               0.0000
     18 H18          6.1441   0.8379   0.1150 H              1 RES1               0.0000
     19 H19          4.6946   1.8107  -0.4785 H              1 RES1               0.0000
     20 H20          2.5705  -1.4794   1.3028 H              1 RES1               0.0000
     21 H21          0.1120  -1.3200   1.6603 H              1 RES1               0.0000
     22 H22         -0.1952   0.9257  -1.9157 H              1 RES1               0.0000
     23 H23          2.2727   0.7429  -2.2441 H              1 RES1               0.0000
     24 H24         -2.3864   1.6517  -0.8432 H              1 RES1               0.0000
     25 H25         -2.0907   0.2308  -1.9871 H              1 RES1               0.0000
     26 H26         -4.4732   0.4880  -1.5439 H              1 RES1               0.0000
     27 H27         -3.8733  -0.9960  -0.6793 H              1 RES1               0.0000
     28 H28         -3.8829   1.6411   0.5800 H              1 RES1               0.0000
     29 H29         -4.2295  -1.0054   1.8193 H              1 RES1               0.0000
     30 H30         -3.6219   0.4983   2.5281 H              1 RES1               0.0000
     31 H31         -2.1508  -1.6834   1.2964 H              1 RES1               0.0000
     32 H32         -1.5412  -0.2622   2.1577 H              1 RES1               0.0000
     33 ****        -5.1977   0.5704   0.7068 LP             1 RES1               0.0000
@<TRIPOS>BOND
    1    1    2 1     
    2    2    3 2     
    3    2    4 2     
    4    2    5 1     
    5    5    6 ar    
    6    6    7 ar    
    7    7    8 ar    
    8    8    9 ar    
    9    9   10 ar    
   10    8   11 1     
   11   11   12 1     
   12   12   13 1     
   13   13   14 1     
   14   14   15 1     
   15   15   16 1     
   16   10    5 ar    
   17   16   11 1     
   18    1   17 1     
   19    1   18 1     
   20    1   19 1     
   21    6   20 1     
   22    7   21 1     
   23    9   22 1     
   24   10   23 1     
   25   12   24 1     
   26   12   25 1     
   27   13   26 1     
   28   13   27 1     
   29   14   28 1     
   30   15   29 1     
   31   15   30 1     
   32   16   31 1     
   33   16   32 1     
   34   14   33 1     
@<TRIPOS>SUBSTRUCTURE
      1 RES1           1
@<TRIPOS>SET
LONE_PAIRS      STATIC     ATOMS    <user>   **** ""
3 3 4 33
DONOR_HYDROGENS      STATIC     ATOMS    <user>   **** ""
1 28
ATOM$BLUE        STATIC     ATOMS    COLORGROUP SYSTEM
3 3 4 33
ATOM$RED        STATIC     ATOMS    COLORGROUP SYSTEM
1 28
