#       Name:                xxxx
#       Creating user name   williammccorkindale
#       Creation time:       Tue Jun  7 11:03:36 2022


#       File generated by GOLD software.
#

@<TRIPOS>MOLECULE
xxxx|x0072|mol2|1|dock3
    26    26     1
SMALL
NO_CHARGES


@<TRIPOS>ATOM
      1 C01        -11.1605  15.8994  64.9180 C.3            1 LIG1101            0.0000
      2 S02        -10.0285  16.2622  66.2887 S.o2           1 LIG1101            0.0000
      3 O03         -8.9048  17.1013  65.8616 O.2            1 LIG1101            0.0000
      4 O04         -9.3055  15.0740  66.7090 O.2            1 LIG1101            0.0000
      5 N05        -10.8865  16.9446  67.5936 N.pl3          1 LIG1101            0.0000
      6 C06        -11.4702  16.0315  68.5421 C.3            1 LIG1101            0.0000
      7 C07        -10.6681  15.8333  69.8207 C.3            1 LIG1101            0.0000
      8 C08        -11.6999  15.4578  70.8730 C.ar           1 LIG1101            0.0000
      9 C09        -12.5849  14.4062  70.6742 C.ar           1 LIG1101            0.0000
     10 C10        -13.4930  14.0855  71.6694 C.ar           1 LIG1101            0.0000
     11 C11        -13.4973  14.7907  72.8626 C.ar           1 LIG1101            0.0000
     12 C12        -12.6017  15.8333  73.0606 C.ar           1 LIG1101            0.0000
     13 C13        -11.7043  16.1581  72.0631 C.ar           1 LIG1101            0.0000
     14 H1         -10.6215  15.3732  64.1316 H              1 LIG1101            0.0000
     15 H2         -11.9778  15.2760  65.2776 H              1 LIG1101            0.0000
     16 H3         -11.5617  16.8313  64.5222 H              1 LIG1101            0.0000
     17 H4         -10.9818  17.9497  67.6976 H              1 LIG1101            0.0000
     18 H5         -11.5771  15.0627  68.0566 H              1 LIG1101            0.0000
     19 H6         -12.4536  16.4112  68.8154 H              1 LIG1101            0.0000
     20 H7         -10.1548  16.7528  70.0979 H              1 LIG1101            0.0000
     21 H8          -9.9391  15.0339  69.6960 H              1 LIG1101            0.0000
     22 H9         -12.5650  13.8392  69.7446 H              1 LIG1101            0.0000
     23 H10        -14.2059  13.2770  71.5140 H              1 LIG1101            0.0000
     24 H11        -14.2050  14.5264  73.6471 H              1 LIG1101            0.0000
     25 H12        -12.6073  16.3907  73.9961 H              1 LIG1101            0.0000
     26 H13        -10.9960  16.9710  72.2157 H              1 LIG1101            0.0000
@<TRIPOS>BOND
    1    1    2 1     
    2    2    3 2     
    3    2    4 2     
    4    2    5 1     
    5    5    6 1     
    6    6    7 1     
    7    7    8 1     
    8    8    9 ar    
    9    9   10 ar    
   10   10   11 ar    
   11   11   12 ar    
   12    8   13 ar    
   13   12   13 ar    
   14    1   14 1     
   15    1   15 1     
   16    1   16 1     
   17    5   17 1     
   18    6   18 1     
   19    6   19 1     
   20    7   20 1     
   21    7   21 1     
   22    9   22 1     
   23   10   23 1     
   24   11   24 1     
   25   12   25 1     
   26   13   26 1     
@<TRIPOS>SUBSTRUCTURE
      1 LIG1101        1
@<TRIPOS>SET
LONE_PAIRS      STATIC     ATOMS    <user>   **** ""
2 3 4
DONOR_HYDROGENS      STATIC     ATOMS    <user>   **** ""
1 17
ATOM$BLUE        STATIC     ATOMS    COLORGROUP SYSTEM
2 3 4
ATOM$RED        STATIC     ATOMS    COLORGROUP SYSTEM
1 17
@<TRIPOS>COMMENT
> <Gold.Version>
2022.1.0

> <Gold.Id.Protein>
6LU7|6LU7_protein|mol2

> <Gold.Protein.RotatedTorsions>
[ 3973 1471 1470 1467 ] final  -63.68 input   60.00 | X-H torsion
[ 3372  414  413  411 ] final  -37.35 input   60.00 | X-H torsion
[ 4268 1114 1113 1110 ] final  -64.65 input   59.99 | X-H torsion
[ 4409  924  923  921 ] final  176.18 input   59.99 | X-H torsion
[ 4183 1244 1243 1241 ] final -142.65 input   59.99 | X-H torsion
[ 3800  178  177  174 ] final  112.78 input   60.00 | X-H torsion
[ 3793  171  170  167 ] final   49.40 input   60.00 | X-H torsion
[ 3576  185  184  181 ] final   23.22 input   60.00 | X-H torsion
[ 3523  346  345  342 ] final  -11.10 input   60.01 | X-H torsion
[ 3515  339  338  335 ] final  157.97 input   60.00 | X-H torsion
[ 3663  154  153  150 ] final  139.38 input   60.00 | X-H torsion
[ 4280 1130 1129 1126 ] final   92.67 input   60.00 | X-H torsion

> <Gold.Protein.ActiveResidues>
 VAL20   THR21   CYS22   GLY23   THR24   THR25   THR26   LEU27   ASN28   PRO39  
 ARG40   HIS41   VAL42   CYS44   THR45   SER46   ASP48   MET49   LEU50   PRO52  
 TYR54   TYR118  ASN119  ILE136  GLY138  SER139  PHE140  LEU141  ASN142  GLY143 
 SER144  CYS145  GLY146  SER147  TYR161  HIS163  HIS164  MET165  GLU166  LEU167 
 PRO168  THR169  GLY170  VAL171  HIS172  ALA173  PHE181  PHE185  VAL186  ASP187 
 ARG188  GLN189  THR190  ALA191  GLN192  ALA193 

> <Gold.Protein.RotatedAtoms>
  -14.8248   18.2459   74.9579 H   0  0  0  0  0  0  0  0  0  0  0  0  # atno 3372 bound_to 414 
   -2.8046   22.1630   75.3106 H   0  0  0  0  0  0  0  0  0  0  0  0  # atno 3515 bound_to 339 
   -3.6410   17.7936   72.8560 H   0  0  0  0  0  0  0  0  0  0  0  0  # atno 3523 bound_to 346 
   -8.7776   26.0964   64.0045 H   0  0  0  0  0  0  0  0  0  0  0  0  # atno 3576 bound_to 185 
   -7.3698   29.9552   64.9752 H   0  0  0  0  0  0  0  0  0  0  0  0  # atno 3663 bound_to 154 
   -3.4340   23.8859   71.8237 H   0  0  0  0  0  0  0  0  0  0  0  0  # atno 3793 bound_to 171 
   -7.1435   23.8753   72.4574 H   0  0  0  0  0  0  0  0  0  0  0  0  # atno 3800 bound_to 178 
  -14.9993    9.0017   77.3208 H   0  0  0  0  0  0  0  0  0  0  0  0  # atno 3973 bound_to 1471
  -19.8759   13.8763   63.6310 H   0  0  0  0  0  0  0  0  0  0  0  0  # atno 4183 bound_to 1244
  -12.4451   15.8510   61.8205 H   0  0  0  0  0  0  0  0  0  0  0  0  # atno 4268 bound_to 1114
  -15.5270   19.2597   59.5902 H   0  0  0  0  0  0  0  0  0  0  0  0  # atno 4280 bound_to 1130
  -10.7956   15.0300   57.9523 H   0  0  0  0  0  0  0  0  0  0  0  0  # atno 4409 bound_to 924 
  -15.6523    8.1876   78.5693 LP  0  0  0  0  0  0  0  0  0  0  0  0  # atno 4696 bound_to 1471
  -15.3852    7.4304   77.1474 LP  0  0  0  0  0  0  0  0  0  0  0  0  # atno 4697 bound_to 1471
  -15.3768   17.0302   75.8882 LP  0  0  0  0  0  0  0  0  0  0  0  0  # atno 4731 bound_to 414 
  -13.8935   17.6583   76.1560 LP  0  0  0  0  0  0  0  0  0  0  0  0  # atno 4732 bound_to 414 
  -13.4756   15.1628   60.7658 LP  0  0  0  0  0  0  0  0  0  0  0  0  # atno 4733 bound_to 1114
  -13.9999   16.3297   61.7807 LP  0  0  0  0  0  0  0  0  0  0  0  0  # atno 4734 bound_to 1114
  -10.8827   15.0243   56.3274 LP  0  0  0  0  0  0  0  0  0  0  0  0  # atno 4763 bound_to 924 
  -12.1899   15.4334   57.2166 LP  0  0  0  0  0  0  0  0  0  0  0  0  # atno 4764 bound_to 924 
  -20.6173   12.5451   63.0598 LP  0  0  0  0  0  0  0  0  0  0  0  0  # atno 4771 bound_to 1244
  -20.8775   13.0322   64.5966 LP  0  0  0  0  0  0  0  0  0  0  0  0  # atno 4772 bound_to 1244
   -6.0653   23.1908   71.4490 LP  0  0  0  0  0  0  0  0  0  0  0  0  # atno 4775 bound_to 178 
   -7.4049   22.3706   71.8955 LP  0  0  0  0  0  0  0  0  0  0  0  0  # atno 4776 bound_to 178 
   -2.6620   24.9969   72.7278 LP  0  0  0  0  0  0  0  0  0  0  0  0  # atno 4779 bound_to 171 
   -1.8599   23.6830   72.1830 LP  0  0  0  0  0  0  0  0  0  0  0  0  # atno 4780 bound_to 171 
   -7.8032   25.0900   63.1765 LP  0  0  0  0  0  0  0  0  0  0  0  0  # atno 4783 bound_to 185 
   -7.3647   26.6452   63.4125 LP  0  0  0  0  0  0  0  0  0  0  0  0  # atno 4784 bound_to 185 
   -2.3988   16.7779   72.5857 LP  0  0  0  0  0  0  0  0  0  0  0  0  # atno 4785 bound_to 346 
   -2.1176   18.2841   73.1503 LP  0  0  0  0  0  0  0  0  0  0  0  0  # atno 4786 bound_to 346 
   -3.6603   21.3949   74.1592 LP  0  0  0  0  0  0  0  0  0  0  0  0  # atno 4787 bound_to 339 
   -3.0058   20.5504   75.3941 LP  0  0  0  0  0  0  0  0  0  0  0  0  # atno 4788 bound_to 339 
   -8.5601   28.8899   65.2852 LP  0  0  0  0  0  0  0  0  0  0  0  0  # atno 4797 bound_to 154 
   -6.9981   28.4474   65.4614 LP  0  0  0  0  0  0  0  0  0  0  0  0  # atno 4798 bound_to 154 

> <Gold.Score>
     Score     S(PLP)   S(hbond)     S(cho)   S(metal)  DE(clash)   DE(tors)     intcor
     42.93     -40.86       1.00       0.00       0.00       0.00       0.98       1.03

> <Gold.PLP.Fitness>
42.9305

> <Gold.PLP.PLP>
-40.8619

> <Gold.PLP.part.hbond>
-1.0000

> <Gold.PLP.part.metal>
0.0000

> <Gold.PLP.part.buried>
-5.9746

> <Gold.PLP.part.nonpolar>
-34.6886

> <Gold.PLP.part.repulsive>
0.0954

> <Gold.PLP.ligand.clash>
0.0000

> <Gold.PLP.ligand.torsion>
0.9794

> <Gold.PLP.Chemscore.Hbond>
1.0000

> <Gold.PLP.Chemscore.CHOScore>
0.0000

> <Gold.PLP.Chemscore.Metal>
0.0000

> <Gold.Chemscore.Hbonds>
donor molecule, donor type, donor heavy atom, donor atom, acceptor molecule, acceptor atom, score
      P1  H  1105  4261       L1     3  1.00

> <Gold.PLP.Chemscore.Internal.Correction>
1.0275

