#       Name:                unknown
#       Creating user name   williammccorkindale
#       Creation time:       Tue Jun  7 14:55:38 2022


#       File generated by GOLD software.
#

@<TRIPOS>MOLECULE
unknown|prepared_Mpro-x1249|mol2|1|dock2
    38    39     1
SMALL
NO_CHARGES


@<TRIPOS>ATOM
      1 O1          -9.5133  13.9091  67.5278 O.2            1 RES1               0.0000
      2 C2          -9.9011  15.0372  67.6302 C.2            1 RES1               0.0000
      3 N3         -10.9009  15.3929  68.6880 N.am           1 RES1               0.0000
      4 C4         -11.5429  14.3649  69.4661 C.3            1 RES1               0.0000
      5 C5         -11.9961  14.9812  70.7384 C.ar           1 RES1               0.0000
      6 C6         -12.8538  14.1015  71.6232 C.ar           1 RES1               0.0000
      7 C7         -13.0729  14.5260  72.9487 C.ar           1 RES1               0.0000
      8 C8         -12.4707  15.7643  73.4697 C.ar           1 RES1               0.0000
      9 C9         -12.5286  16.1314  74.8134 C.1            1 RES1               0.0000
     10 N10        -12.5642  16.3596  75.6879 N.1            1 RES1               0.0000
     11 C11        -11.7689  16.4889  72.5027 C.ar           1 RES1               0.0000
     12 C12        -11.6059  16.0355  71.2400 C.ar           1 RES1               0.0000
     13 N13         -9.6553  16.2674  66.9124 N.am           1 RES1               0.0000
     14 C14         -8.4100  16.3884  66.0986 C.3            1 RES1               0.0000
     15 C15         -7.6715  17.5631  66.7243 C.3            1 RES1               0.0000
     16 O16         -8.3534  18.3601  67.5318 O.3            1 RES1               0.0000
     17 C17         -9.7012  18.4142  67.6879 C.3            1 RES1               0.0000
     18 C18        -10.4974  17.4057  66.9306 C.3            1 RES1               0.0000
     19 H19        -10.9542  16.3328  68.9899 H              1 RES1               0.0000
     20 H20        -10.8004  13.5422  69.6779 H              1 RES1               0.0000
     21 H21        -12.4389  13.9041  68.9978 H              1 RES1               0.0000
     22 H22        -13.1921  13.2155  71.2192 H              1 RES1               0.0000
     23 H23        -13.7003  13.9219  73.4856 H              1 RES1               0.0000
     24 H24        -11.2348  17.4176  72.7886 H              1 RES1               0.0000
     25 H25        -11.1744  16.7825  70.4430 H              1 RES1               0.0000
     26 H26         -7.8658  15.4426  66.2062 H              1 RES1               0.0000
     27 H27         -8.6413  16.5348  65.0721 H              1 RES1               0.0000
     28 H28         -6.8199  17.1017  67.3484 H              1 RES1               0.0000
     29 H29         -7.0359  18.1007  65.9082 H              1 RES1               0.0000
     30 H30        -10.1381  19.5122  67.4790 H              1 RES1               0.0000
     31 H31        -10.0329  18.3332  68.7607 H              1 RES1               0.0000
     32 H32        -10.5616  17.7655  65.8286 H              1 RES1               0.0000
     33 H33        -11.4339  17.1740  67.3243 H              1 RES1               0.0000
     34 ****        -9.8567  13.2040  68.1484 LP             1 RES1               0.0000
     35 ****        -8.8460  13.6718  66.8218 LP             1 RES1               0.0000
     36 ****       -12.6036  16.6119  76.6548 LP             1 RES1               0.0000
     37 ****        -8.0891  19.2859  67.2616 LP             1 RES1               0.0000
     38 ****        -7.9970  18.1651  68.4456 LP             1 RES1               0.0000
@<TRIPOS>BOND
    1    1    2 2     
    2    2    3 am    
    3    3    4 1     
    4    4    5 1     
    5    5    6 ar    
    6    6    7 ar    
    7    7    8 ar    
    8    8    9 1     
    9    9   10 3     
   10    8   11 ar    
   11   11   12 ar    
   12    2   13 am    
   13   13   14 1     
   14   14   15 1     
   15   15   16 1     
   16   16   17 1     
   17   17   18 1     
   18    5   12 ar    
   19   18   13 1     
   20    3   19 1     
   21    4   20 1     
   22    4   21 1     
   23    6   22 1     
   24    7   23 1     
   25   11   24 1     
   26   12   25 1     
   27   14   26 1     
   28   14   27 1     
   29   15   28 1     
   30   15   29 1     
   31   17   30 1     
   32   17   31 1     
   33   18   32 1     
   34   18   33 1     
   35    1   34 1     
   36    1   35 1     
   37   10   36 1     
   38   16   37 1     
   39   16   38 1     
@<TRIPOS>SUBSTRUCTURE
      1 RES1           1
@<TRIPOS>SET
LONE_PAIRS      STATIC     ATOMS    <user>   **** ""
5 34 35 36 37 38
DONOR_HYDROGENS      STATIC     ATOMS    <user>   **** ""
1 19
ATOM$BLUE        STATIC     ATOMS    COLORGROUP SYSTEM
5 34 35 36 37 38
ATOM$RED        STATIC     ATOMS    COLORGROUP SYSTEM
1 19
@<TRIPOS>COMMENT
> <Gold.Version>
2022.1.0

> <Gold.Id.Protein>
6LU7|6LU7_protein|mol2

> <Gold.Protein.RotatedTorsions>
[ 3973 1471 1470 1467 ] final   88.28 input   60.00 | X-H torsion
[ 3372  414  413  411 ] final   86.73 input   60.00 | X-H torsion
[ 4268 1114 1113 1110 ] final  -63.59 input   59.99 | X-H torsion
[ 4409  924  923  921 ] final  -34.80 input   59.99 | X-H torsion
[ 4183 1244 1243 1241 ] final   21.07 input   59.99 | X-H torsion
[ 3800  178  177  174 ] final  102.23 input   60.00 | X-H torsion
[ 3793  171  170  167 ] final -174.48 input   60.00 | X-H torsion
[ 3576  185  184  181 ] final   26.75 input   60.00 | X-H torsion
[ 3523  346  345  342 ] final  -86.59 input   60.01 | X-H torsion
[ 3515  339  338  335 ] final  -50.82 input   60.00 | X-H torsion
[ 3663  154  153  150 ] final  158.16 input   60.00 | X-H torsion
[ 4280 1130 1129 1126 ] final  120.52 input   60.00 | X-H torsion

> <Gold.Protein.ActiveResidues>
 VAL20   THR21   CYS22   GLY23   THR24   THR25   THR26   LEU27   ASN28   PRO39  
 ARG40   HIS41   VAL42   CYS44   THR45   SER46   ASP48   MET49   LEU50   PRO52  
 TYR54   TYR118  ASN119  ILE136  GLY138  SER139  PHE140  LEU141  ASN142  GLY143 
 SER144  CYS145  GLY146  SER147  TYR161  HIS163  HIS164  MET165  GLU166  LEU167 
 PRO168  THR169  GLY170  VAL171  HIS172  ALA173  PHE181  PHE185  VAL186  ASP187 
 ARG188  GLN189  THR190  ALA191  GLN192  ALA193 

> <Gold.Protein.RotatedAtoms>
  -13.9246   17.6100   76.1911 H   0  0  0  0  0  0  0  0  0  0  0  0  # atno 3372 bound_to 414 
   -3.2859   20.4447   74.9867 H   0  0  0  0  0  0  0  0  0  0  0  0  # atno 3515 bound_to 339 
   -3.1079   16.8263   72.5497 H   0  0  0  0  0  0  0  0  0  0  0  0  # atno 3523 bound_to 346 
   -8.7607   26.1510   64.0120 H   0  0  0  0  0  0  0  0  0  0  0  0  # atno 3576 bound_to 185 
   -7.0959   29.8280   65.0219 H   0  0  0  0  0  0  0  0  0  0  0  0  # atno 3663 bound_to 154 
   -1.7722   23.8847   72.3280 H   0  0  0  0  0  0  0  0  0  0  0  0  # atno 3793 bound_to 171 
   -6.9984   23.9491   72.4017 H   0  0  0  0  0  0  0  0  0  0  0  0  # atno 3800 bound_to 178 
  -15.5751    7.3035   77.6115 H   0  0  0  0  0  0  0  0  0  0  0  0  # atno 3973 bound_to 1471
  -21.0561   12.5386   64.1341 H   0  0  0  0  0  0  0  0  0  0  0  0  # atno 4183 bound_to 1244
  -12.4508   15.8633   61.8311 H   0  0  0  0  0  0  0  0  0  0  0  0  # atno 4268 bound_to 1114
  -15.5428   18.8765   59.3536 H   0  0  0  0  0  0  0  0  0  0  0  0  # atno 4280 bound_to 1130
  -12.0955   15.3990   56.7566 H   0  0  0  0  0  0  0  0  0  0  0  0  # atno 4409 bound_to 924 
  -14.9698    8.6554   76.9376 LP  0  0  0  0  0  0  0  0  0  0  0  0  # atno 4696 bound_to 1471
  -15.4878    8.6729   78.4862 LP  0  0  0  0  0  0  0  0  0  0  0  0  # atno 4697 bound_to 1471
  -14.7634   18.2728   74.9642 LP  0  0  0  0  0  0  0  0  0  0  0  0  # atno 4731 bound_to 414 
  -15.4134   17.0560   75.8381 LP  0  0  0  0  0  0  0  0  0  0  0  0  # atno 4732 bound_to 414 
  -13.4590   15.1578   60.7664 LP  0  0  0  0  0  0  0  0  0  0  0  0  # atno 4733 bound_to 1114
  -14.0107   16.3223   61.7695 LP  0  0  0  0  0  0  0  0  0  0  0  0  # atno 4734 bound_to 1114
  -11.2211   15.1584   58.1077 LP  0  0  0  0  0  0  0  0  0  0  0  0  # atno 4763 bound_to 924 
  -10.5423   14.9277   56.6405 LP  0  0  0  0  0  0  0  0  0  0  0  0  # atno 4764 bound_to 924 
  -20.1360   13.8727   64.2805 LP  0  0  0  0  0  0  0  0  0  0  0  0  # atno 4771 bound_to 1244
  -20.1702   13.0519   62.8692 LP  0  0  0  0  0  0  0  0  0  0  0  0  # atno 4772 bound_to 1244
   -6.1064   23.0306   71.3973 LP  0  0  0  0  0  0  0  0  0  0  0  0  # atno 4775 bound_to 178 
   -7.5099   22.4566   72.0034 LP  0  0  0  0  0  0  0  0  0  0  0  0  # atno 4776 bound_to 178 
   -3.2807   23.6840   71.7518 LP  0  0  0  0  0  0  0  0  0  0  0  0  # atno 4779 bound_to 171 
   -2.9150   24.9971   72.6511 LP  0  0  0  0  0  0  0  0  0  0  0  0  # atno 4780 bound_to 171 
   -7.8541   25.0721   63.1983 LP  0  0  0  0  0  0  0  0  0  0  0  0  # atno 4783 bound_to 185 
   -7.3310   26.6080   63.3833 LP  0  0  0  0  0  0  0  0  0  0  0  0  # atno 4784 bound_to 185 
   -1.7854   17.6815   72.9595 LP  0  0  0  0  0  0  0  0  0  0  0  0  # atno 4785 bound_to 346 
   -3.2679   18.3547   73.0849 LP  0  0  0  0  0  0  0  0  0  0  0  0  # atno 4786 bound_to 346 
   -2.6558   21.8002   75.6297 LP  0  0  0  0  0  0  0  0  0  0  0  0  # atno 4787 bound_to 339 
   -3.5257   21.8755   74.2498 LP  0  0  0  0  0  0  0  0  0  0  0  0  # atno 4788 bound_to 339 
   -8.5800   29.1823   65.1916 LP  0  0  0  0  0  0  0  0  0  0  0  0  # atno 4797 bound_to 154 
   -7.2541   28.2830   65.5080 LP  0  0  0  0  0  0  0  0  0  0  0  0  # atno 4798 bound_to 154 

> <Gold.Score>
     Score     S(PLP)   S(hbond)     S(cho)   S(metal)  DE(clash)   DE(tors)     intcor
     47.04     -46.57       0.75       0.00       0.00       2.64       0.50       1.85

> <Gold.PLP.Fitness>
47.0372

> <Gold.PLP.PLP>
-46.5703

> <Gold.PLP.part.hbond>
-1.0000

> <Gold.PLP.part.metal>
0.0000

> <Gold.PLP.part.buried>
-4.8341

> <Gold.PLP.part.nonpolar>
-41.8894

> <Gold.PLP.part.repulsive>
0.5719

> <Gold.PLP.ligand.clash>
2.6440

> <Gold.PLP.ligand.torsion>
0.4984

> <Gold.PLP.Chemscore.Hbond>
0.7520

> <Gold.PLP.Chemscore.CHOScore>
0.0000

> <Gold.PLP.Chemscore.Metal>
0.0000

> <Gold.Chemscore.Hbonds>
donor molecule, donor type, donor heavy atom, donor atom, acceptor molecule, acceptor atom, score
      P1  H   414  3372       L1    10  0.75

> <Gold.PLP.Chemscore.Internal.Correction>
1.8519

