unknown|prepared_Mpro-x0967|sdf|1|dock3
  -GOLD-   5 72214353D 1   1.00000     0.00000

 35 35  0  0  0  0  0  0  0  0  1 V2000
   -6.8071   14.9461   67.7405 C   0  0  0  0  0  0  0  0  0  0  0  0
   -8.0066   14.1904   68.1926 C   0  0  0  0  0  0  0  0  0  0  0  0
   -7.9266   12.9806   68.4051 O   0  0  0  0  0  0  0  0  0  0  0  0
   -9.2405   14.8666   68.3921 N   0  0  0  0  0  0  0  0  0  0  0  0
  -10.4613   14.4420   68.8603 C   0  0  0  0  0  0  0  0  0  0  0  0
  -11.5879   15.4591   68.9843 C   0  0  0  0  0  0  0  0  0  0  0  0
  -12.0142   15.4843   70.4155 C   0  0  0  0  0  0  0  0  0  0  0  0
  -11.3983   16.3613   71.3094 C   0  0  0  0  0  0  0  0  0  0  0  0
  -11.7286   16.3486   72.6371 C   0  0  0  0  0  0  0  0  0  0  0  0
  -12.7036   15.4525   73.1610 C   0  0  0  0  0  0  0  0  0  0  0  0
  -13.3035   14.6101   72.3177 C   0  0  0  0  0  0  0  0  0  0  0  0
  -12.9506   14.6396   70.9485 C   0  0  0  0  0  0  0  0  0  0  0  0
  -12.9042   15.6048   74.5470 O   0  0  0  0  0  0  0  0  0  0  0  0
  -11.0352   13.1724   68.3394 C   0  0  0  0  0  0  0  0  0  0  0  0
  -11.7137   13.0372   67.4012 O   0  0  0  0  0  0  0  0  0  0  0  0
  -10.6012   12.0459   69.2134 N   0  0  0  0  0  0  0  0  0  0  0  0
  -11.1182   10.7678   68.8755 C   0  0  0  0  0  0  0  0  0  0  0  0
  -12.0053   10.3245   70.0996 C   0  0  0  0  0  0  0  0  0  0  0  0
  -12.6239   10.0020   70.9832 C   0  0  0  0  0  0  0  0  0  0  0  0
  -13.6381    9.4734   72.4011 Br  0  0  0  0  0  0  0  0  0  0  0  0
   -5.9082   14.3509   67.6096 H   0  0  0  0  0  0  0  0  0  0  0  0
   -6.6141   15.7699   68.5113 H   0  0  0  0  0  0  0  0  0  0  0  0
   -7.0253   15.5536   66.8197 H   0  0  0  0  0  0  0  0  0  0  0  0
   -9.1859   15.9210   68.0922 H   0  0  0  0  0  0  0  0  0  0  0  0
  -10.2748   14.1961   70.0297 H   0  0  0  0  0  0  0  0  0  0  0  0
  -11.1326   16.4764   68.7381 H   0  0  0  0  0  0  0  0  0  0  0  0
  -12.4332   15.3646   68.3332 H   0  0  0  0  0  0  0  0  0  0  0  0
  -10.6919   17.0416   70.8707 H   0  0  0  0  0  0  0  0  0  0  0  0
  -11.2256   17.0595   73.3374 H   0  0  0  0  0  0  0  0  0  0  0  0
  -14.0363   13.8734   72.6145 H   0  0  0  0  0  0  0  0  0  0  0  0
  -13.4725   13.9563   70.2708 H   0  0  0  0  0  0  0  0  0  0  0  0
  -13.7691   15.6586   74.9966 H   0  0  0  0  0  0  0  0  0  0  0  0
   -9.9612   12.1589   70.0053 H   0  0  0  0  0  0  0  0  0  0  0  0
  -11.7539   10.7584   67.9906 H   0  0  0  0  0  0  0  0  0  0  0  0
  -10.3448   10.0079   68.7586 H   0  0  0  0  0  0  0  0  0  0  0  0
  1  2  1  0  0  0  0
  2  3  2  0  0  0  0
  2  4  1  0  0  0  0
  4  5  1  0  0  0  0
  5  6  1  0  0  0  0
  6  7  1  0  0  0  0
  7  8  2  0  0  0  0
  8  9  1  0  0  0  0
  9 10  2  0  0  0  0
 10 11  1  0  0  0  0
 11 12  2  0  0  0  0
 10 13  1  0  0  0  0
  5 14  1  0  0  0  0
 14 15  2  0  0  0  0
 14 16  1  0  0  0  0
 16 17  1  0  0  0  0
 17 18  1  0  0  0  0
 18 19  3  0  0  0  0
 19 20  1  0  0  0  0
 12  7  1  0  0  0  0
  1 21  1  0  0  0  0
  1 22  1  0  0  0  0
  1 23  1  0  0  0  0
  4 24  1  0  0  0  0
  5 25  1  0  0  0  0
  6 26  1  0  0  0  0
  6 27  1  0  0  0  0
  8 28  1  0  0  0  0
  9 29  1  0  0  0  0
 11 30  1  0  0  0  0
 12 31  1  0  0  0  0
 13 32  1  0  0  0  0
 16 33  1  0  0  0  0
 17 34  1  0  0  0  0
 17 35  1  0  0  0  0
M  END
> <Gold.Version>
2022.1.0

> <Gold.Id.Protein>
6LU7|6LU7_protein|mol2

> <Gold.PLP.Fitness>
52.6373

> <Gold.PLP.PLP>
-49.0096

> <Gold.PLP.part.hbond>
-2.4823

> <Gold.PLP.part.metal>
0.0000

> <Gold.PLP.part.buried>
-6.7461

> <Gold.PLP.part.nonpolar>
-40.6562

> <Gold.PLP.part.repulsive>
0.1635

> <Gold.PLP.ligand.clash>
0.0000

> <Gold.PLP.ligand.torsion>
1.5666

> <Gold.PLP.Chemscore.Hbond>
2.0000

> <Gold.PLP.Chemscore.CHOScore>
0.0000

> <Gold.PLP.Chemscore.Metal>
0.0000

> <Gold.Chemscore.Hbonds>
donor molecule, donor type, donor heavy atom, donor atom, acceptor molecule, acceptor atom, score
      L1  H    13    32       P1  1441  1.00
      L1  H    16    33       P1  1464  1.00

> <Gold.PLP.Chemscore.Internal.Correction>
0.7609

> <Gold.Protein.RotatedTorsions>
[ 3973 1471 1470 1467 ] final   38.28 input   60.00 | X-H torsion
[ 3372  414  413  411 ] final -116.09 input   60.00 | X-H torsion
[ 4268 1114 1113 1110 ] final -146.84 input   59.99 | X-H torsion
[ 4409  924  923  921 ] final   -2.64 input   59.99 | X-H torsion
[ 4183 1244 1243 1241 ] final -105.12 input   59.99 | X-H torsion
[ 3800  178  177  174 ] final  103.47 input   60.00 | X-H torsion
[ 3793  171  170  167 ] final   24.93 input   60.00 | X-H torsion
[ 3576  185  184  181 ] final   99.87 input   60.00 | X-H torsion
[ 3523  346  345  342 ] final    1.19 input   60.01 | X-H torsion
[ 3515  339  338  335 ] final   -7.81 input   60.00 | X-H torsion
[ 3663  154  153  150 ] final  171.58 input   60.00 | X-H torsion
[ 4280 1130 1129 1126 ] final -168.31 input   60.00 | X-H torsion

> <Gold.Protein.ActiveResidues>
 VAL20   THR21   CYS22   GLY23   THR24   THR25   THR26   LEU27   ASN28   PRO39  
 ARG40   HIS41   VAL42   CYS44   THR45   SER46   ASP48   MET49   LEU50   PRO52  
 TYR54   TYR118  ASN119  ILE136  GLY138  SER139  PHE140  LEU141  ASN142  GLY143 
 SER144  CYS145  GLY146  SER147  TYR161  HIS163  HIS164  MET165  GLU166  LEU167 
 PRO168  THR169  GLY170  VAL171  HIS172  ALA173  PHE181  PHE185  VAL186  ASP187 
 ARG188  GLN189  THR190  ALA191  GLN192  ALA193 

> <Gold.Protein.RotatedAtoms>
  -15.5579   17.4111   75.3776 H   0  0  0  0  0  0  0  0  0  0  0  0  # atno 3372 bound_to 414 
   -3.5915   20.7232   74.4389 H   0  0  0  0  0  0  0  0  0  0  0  0  # atno 3515 bound_to 339 
   -3.5857   17.9734   72.9251 H   0  0  0  0  0  0  0  0  0  0  0  0  # atno 3523 bound_to 346 
   -7.9219   26.8465   63.7740 H   0  0  0  0  0  0  0  0  0  0  0  0  # atno 3576 bound_to 185 
   -6.9344   29.6885   65.0700 H   0  0  0  0  0  0  0  0  0  0  0  0  # atno 3663 bound_to 154 
   -3.5543   24.2251   71.9907 H   0  0  0  0  0  0  0  0  0  0  0  0  # atno 3793 bound_to 171 
   -7.0156   23.9419   72.4091 H   0  0  0  0  0  0  0  0  0  0  0  0  # atno 3800 bound_to 178 
  -15.2648    7.6189   76.9555 H   0  0  0  0  0  0  0  0  0  0  0  0  # atno 3973 bound_to 1471
  -20.0871   13.8969   64.1948 H   0  0  0  0  0  0  0  0  0  0  0  0  # atno 4183 bound_to 1244
  -12.8900   15.1290   60.9286 H   0  0  0  0  0  0  0  0  0  0  0  0  # atno 4268 bound_to 1114
  -15.9701   18.6674   58.3735 H   0  0  0  0  0  0  0  0  0  0  0  0  # atno 4280 bound_to 1130
  -11.7644   15.2925   56.3719 H   0  0  0  0  0  0  0  0  0  0  0  0  # atno 4409 bound_to 924 
  -15.0638    9.1040   77.5895 LP  0  0  0  0  0  0  0  0  0  0  0  0  # atno 4696 bound_to 1471
  -15.7063    7.9066   78.4950 LP  0  0  0  0  0  0  0  0  0  0  0  0  # atno 4697 bound_to 1471
  -14.3037   17.1912   76.3909 LP  0  0  0  0  0  0  0  0  0  0  0  0  # atno 4731 bound_to 414 
  -14.2285   18.3380   75.2307 LP  0  0  0  0  0  0  0  0  0  0  0  0  # atno 4732 bound_to 414 
  -14.2206   15.9713   61.3381 LP  0  0  0  0  0  0  0  0  0  0  0  0  # atno 4733 bound_to 1114
  -12.8068   16.2484   62.1067 LP  0  0  0  0  0  0  0  0  0  0  0  0  # atno 4734 bound_to 1114
  -11.7107   15.3036   57.9982 LP  0  0  0  0  0  0  0  0  0  0  0  0  # atno 4763 bound_to 924 
  -10.3861   14.8898   57.1375 LP  0  0  0  0  0  0  0  0  0  0  0  0  # atno 4764 bound_to 924 
  -20.2292   12.9691   62.8655 LP  0  0  0  0  0  0  0  0  0  0  0  0  # atno 4771 bound_to 1244
  -21.0529   12.5875   64.2230 LP  0  0  0  0  0  0  0  0  0  0  0  0  # atno 4772 bound_to 1244
   -6.1003   23.0491   71.4024 LP  0  0  0  0  0  0  0  0  0  0  0  0  # atno 4775 bound_to 178 
   -7.4987   22.4453   71.9908 LP  0  0  0  0  0  0  0  0  0  0  0  0  # atno 4776 bound_to 178 
   -2.2833   24.8765   72.7706 LP  0  0  0  0  0  0  0  0  0  0  0  0  # atno 4779 bound_to 171 
   -2.1174   23.4618   71.9720 LP  0  0  0  0  0  0  0  0  0  0  0  0  # atno 4780 bound_to 171 
   -8.7398   25.4398   63.7830 LP  0  0  0  0  0  0  0  0  0  0  0  0  # atno 4783 bound_to 185 
   -7.2900   25.5399   63.0383 LP  0  0  0  0  0  0  0  0  0  0  0  0  # atno 4784 bound_to 185 
   -2.5941   16.7371   72.5556 LP  0  0  0  0  0  0  0  0  0  0  0  0  # atno 4785 bound_to 346 
   -1.9780   18.1439   73.1108 LP  0  0  0  0  0  0  0  0  0  0  0  0  # atno 4786 bound_to 346 
   -2.6952   21.1187   75.7382 LP  0  0  0  0  0  0  0  0  0  0  0  0  # atno 4787 bound_to 339 
   -3.1785   22.2765   74.6930 LP  0  0  0  0  0  0  0  0  0  0  0  0  # atno 4788 bound_to 339 
   -8.5326   29.3876   65.1273 LP  0  0  0  0  0  0  0  0  0  0  0  0  # atno 4797 bound_to 154 
   -7.4641   28.2182   65.5239 LP  0  0  0  0  0  0  0  0  0  0  0  0  # atno 4798 bound_to 154 

$$$$
