#       Name:                /Users/williammccorkindale/ml_physics/smi2wyck/notebooks/docking/mpro_fragments/prepared_Mpro-x0161.mol2
#       Creating user name   williammccorkindale
#       Creation time:       Tue Jun  7 14:55:37 2022


#       File generated by GOLD software.
#

@<TRIPOS>MOLECULE
/Users/williammccorkindale/ml_physics/smi2wyck/notebooks/docking/mpro_fragments/prepared_Mpro-x0161.mol2
    26    26     1
SMALL
NO_CHARGES


@<TRIPOS>ATOM
      1 C1           4.5993   0.6297   0.8435 C.3            1 RES1               0.0000
      2 O2           3.2168   0.3939   0.9038 O.3            1 RES1               0.0000
      3 C3           2.5000   0.2682  -0.2708 C.2            1 RES1               0.0000
      4 O4           3.1319   0.3731  -1.3489 O.2            1 RES1               0.0000
      5 C5           1.0498   0.0207  -0.2481 C.ar           1 RES1               0.0000
      6 C6           0.3223  -0.1068  -1.4070 C.ar           1 RES1               0.0000
      7 C7          -1.0570  -0.3423  -1.3879 C.ar           1 RES1               0.0000
      8 C8          -1.7143  -0.4511  -0.1810 C.ar           1 RES1               0.0000
      9 C9          -0.9535  -0.3180   0.9611 C.ar           1 RES1               0.0000
     10 C10          0.3954  -0.0877   0.9547 C.ar           1 RES1               0.0000
     11 S11         -3.4331  -0.7445  -0.1188 S.o2           1 RES1               0.0000
     12 O12         -3.7947  -1.5490  -1.3329 O.2            1 RES1               0.0000
     13 O13         -3.7694  -1.4975   1.1517 O.2            1 RES1               0.0000
     14 N14         -4.3486   0.7073  -0.0996 N.3            1 RES1               0.0000
     15 H15          5.0266   0.9323   1.8209 H              1 RES1               0.0000
     16 H16          4.8946   1.3740   0.0882 H              1 RES1               0.0000
     17 H17          5.0732  -0.3367   0.5242 H              1 RES1               0.0000
     18 H18          0.8324  -0.0224  -2.3572 H              1 RES1               0.0000
     19 H19         -1.6387  -0.4441  -2.2837 H              1 RES1               0.0000
     20 H20         -1.4549  -0.4010   1.9172 H              1 RES1               0.0000
     21 H21          0.9892   0.0162   1.8644 H              1 RES1               0.0000
     22 H22         -5.1046   0.6594  -0.8135 H              1 RES1               0.0000
     23 H23         -4.7630   0.9263   0.8199 H              1 RES1               0.0000
     24 ****         4.1176   0.5415  -1.3364 LP             1 RES1               0.0000
     25 ****         2.6502   0.2884  -2.2211 LP             1 RES1               0.0000
     26 ****        -3.7049   1.4432  -0.3096 LP             1 RES1               0.0000
@<TRIPOS>BOND
    1    1    2 1     
    2    2    3 1     
    3    3    4 2     
    4    3    5 1     
    5    5    6 ar    
    6    6    7 ar    
    7    7    8 ar    
    8    8    9 ar    
    9    9   10 ar    
   10    8   11 1     
   11   11   12 2     
   12   11   13 2     
   13   11   14 1     
   14    5   10 ar    
   15    1   15 1     
   16    1   16 1     
   17    1   17 1     
   18    6   18 1     
   19    7   19 1     
   20    9   20 1     
   21   10   21 1     
   22   14   22 1     
   23   14   23 1     
   24    4   24 1     
   25    4   25 1     
   26   14   26 1     
@<TRIPOS>SUBSTRUCTURE
      1 RES1           1
@<TRIPOS>SET
LONE_PAIRS      STATIC     ATOMS    <user>   **** ""
5 24 25 12 13 26
DONOR_HYDROGENS      STATIC     ATOMS    <user>   **** ""
2 22 23
ATOM$BLUE        STATIC     ATOMS    COLORGROUP SYSTEM
5 24 25 12 13 26
ATOM$RED        STATIC     ATOMS    COLORGROUP SYSTEM
2 22 23
