unknown|prepared_Mpro-x0104|sdf|1|dock4
  -GOLD-   5 72214353D 1   1.00000     0.00000

 29 30  0  0  0  0  0  0  0  0  1 V2000
  -10.9467    6.0923   68.0480 C   0  0  0  0  0  0  0  0  0  0  0  0
  -10.4855    7.4120   68.4788 C   0  0  0  0  0  0  0  0  0  0  0  0
   -9.2456    7.6461   68.4725 O   0  0  0  0  0  0  0  0  0  0  0  0
  -11.3307    8.4652   68.9093 N   0  0  0  0  0  0  0  0  0  0  0  0
  -10.8503    9.7411   69.3234 C   0  0  0  0  0  0  0  0  0  0  0  0
  -11.8391   10.8534   69.1683 C   0  0  0  0  0  0  0  0  0  0  0  0
  -12.4522   11.2884   70.4275 C   0  0  0  0  0  0  0  0  0  0  0  0
  -13.0975   10.5543   71.3950 C   0  0  0  0  0  0  0  0  0  0  0  0
  -13.5119   11.3512   72.3973 N   0  0  0  0  0  0  0  0  0  0  0  0
  -13.1335   12.6028   72.0766 C   0  0  0  0  0  0  0  0  0  0  0  0
  -13.3209   13.7772   72.7744 C   0  0  0  0  0  0  0  0  0  0  0  0
  -12.8390   14.9676   72.2446 C   0  0  0  0  0  0  0  0  0  0  0  0
  -12.1692   14.9920   71.0191 C   0  0  0  0  0  0  0  0  0  0  0  0
  -11.6899   16.1260   70.4771 F   0  0  0  0  0  0  0  0  0  0  0  0
  -12.0055   13.7993   70.3592 C   0  0  0  0  0  0  0  0  0  0  0  0
  -12.4745   12.5973   70.8616 C   0  0  0  0  0  0  0  0  0  0  0  0
  -11.8959    5.7675   68.5370 H   0  0  0  0  0  0  0  0  0  0  0  0
  -10.1808    5.3442   68.3584 H   0  0  0  0  0  0  0  0  0  0  0  0
  -11.1246    6.0178   66.9568 H   0  0  0  0  0  0  0  0  0  0  0  0
  -12.3543    8.2781   68.9167 H   0  0  0  0  0  0  0  0  0  0  0  0
  -10.5042    9.6604   70.3733 H   0  0  0  0  0  0  0  0  0  0  0  0
   -9.9356   10.0331   68.7357 H   0  0  0  0  0  0  0  0  0  0  0  0
  -12.6022   10.6130   68.4034 H   0  0  0  0  0  0  0  0  0  0  0  0
  -11.2763   11.7373   68.7469 H   0  0  0  0  0  0  0  0  0  0  0  0
  -13.2659    9.4902   71.3854 H   0  0  0  0  0  0  0  0  0  0  0  0
  -14.0259   11.0311   73.2473 H   0  0  0  0  0  0  0  0  0  0  0  0
  -13.8386   13.8001   73.7341 H   0  0  0  0  0  0  0  0  0  0  0  0
  -12.9857   15.8774   72.7879 H   0  0  0  0  0  0  0  0  0  0  0  0
  -11.4802   13.8290   69.4013 H   0  0  0  0  0  0  0  0  0  0  0  0
  1  2  1  0  0  0  0
  2  3  2  0  0  0  0
  2  4  1  0  0  0  0
  4  5  1  0  0  0  0
  5  6  1  0  0  0  0
  6  7  1  0  0  0  0
  7  8  2  0  0  0  0
  8  9  1  0  0  0  0
  9 10  1  0  0  0  0
 10 11  2  0  0  0  0
 11 12  1  0  0  0  0
 12 13  2  0  0  0  0
 13 14  1  0  0  0  0
 13 15  1  0  0  0  0
 15 16  2  0  0  0  0
 16  7  1  0  0  0  0
 10 16  1  0  0  0  0
  1 17  1  0  0  0  0
  1 18  1  0  0  0  0
  1 19  1  0  0  0  0
  4 20  1  0  0  0  0
  5 21  1  0  0  0  0
  5 22  1  0  0  0  0
  6 23  1  0  0  0  0
  6 24  1  0  0  0  0
  8 25  1  0  0  0  0
  9 26  1  0  0  0  0
 11 27  1  0  0  0  0
 12 28  1  0  0  0  0
 15 29  1  0  0  0  0
M  END
> <Gold.Version>
2022.1.0

> <Gold.Id.Protein>
6LU7|6LU7_protein|mol2

> <Gold.PLP.Fitness>
51.8575

> <Gold.PLP.PLP>
-46.9285

> <Gold.PLP.part.hbond>
-2.0000

> <Gold.PLP.part.metal>
0.0000

> <Gold.PLP.part.buried>
-5.4062

> <Gold.PLP.part.nonpolar>
-40.5482

> <Gold.PLP.part.repulsive>
0.2301

> <Gold.PLP.ligand.clash>
0.0000

> <Gold.PLP.ligand.torsion>
0.5384

> <Gold.PLP.Chemscore.Hbond>
2.0000

> <Gold.PLP.Chemscore.CHOScore>
0.0000

> <Gold.PLP.Chemscore.Metal>
0.0000

> <Gold.Chemscore.Hbonds>
donor molecule, donor type, donor heavy atom, donor atom, acceptor molecule, acceptor atom, score
      L1  H     4    20       P1  1284  1.00
      L1  H     9    26       P1  1449  1.00

> <Gold.PLP.Chemscore.Internal.Correction>
0.0059

> <Gold.Protein.RotatedTorsions>
[ 3973 1471 1470 1467 ] final  -78.62 input   60.00 | X-H torsion
[ 3372  414  413  411 ] final  -91.12 input   60.00 | X-H torsion
[ 4268 1114 1113 1110 ] final  178.35 input   59.99 | X-H torsion
[ 4409  924  923  921 ] final  -85.06 input   59.99 | X-H torsion
[ 4183 1244 1243 1241 ] final    2.77 input   59.99 | X-H torsion
[ 3800  178  177  174 ] final  128.54 input   60.00 | X-H torsion
[ 3793  171  170  167 ] final  -29.92 input   60.00 | X-H torsion
[ 3576  185  184  181 ] final  159.33 input   60.00 | X-H torsion
[ 3523  346  345  342 ] final    5.53 input   60.01 | X-H torsion
[ 3515  339  338  335 ] final  -66.17 input   60.00 | X-H torsion
[ 3663  154  153  150 ] final  101.56 input   60.00 | X-H torsion
[ 4280 1130 1129 1126 ] final   29.93 input   60.00 | X-H torsion

> <Gold.Protein.ActiveResidues>
 VAL20   THR21   CYS22   GLY23   THR24   THR25   THR26   LEU27   ASN28   PRO39  
 ARG40   HIS41   VAL42   CYS44   THR45   SER46   ASP48   MET49   LEU50   PRO52  
 TYR54   TYR118  ASN119  ILE136  GLY138  SER139  PHE140  LEU141  ASN142  GLY143 
 SER144  CYS145  GLY146  SER147  TYR161  HIS163  HIS164  MET165  GLU166  LEU167 
 PRO168  THR169  GLY170  VAL171  HIS172  ALA173  PHE181  PHE185  VAL186  ASP187 
 ARG188  GLN189  THR190  ALA191  GLN192  ALA193 

> <Gold.Protein.RotatedAtoms>
  -15.4595   17.7106   75.1239 H   0  0  0  0  0  0  0  0  0  0  0  0  # atno 3372 bound_to 414 
   -3.1493   20.4663   75.1950 H   0  0  0  0  0  0  0  0  0  0  0  0  # atno 3515 bound_to 339 
   -3.5564   18.0334   72.9490 H   0  0  0  0  0  0  0  0  0  0  0  0  # atno 3523 bound_to 346 
   -7.2362   26.4520   63.2881 H   0  0  0  0  0  0  0  0  0  0  0  0  # atno 3576 bound_to 185 
   -7.9760   29.9311   64.9692 H   0  0  0  0  0  0  0  0  0  0  0  0  # atno 3663 bound_to 154 
   -3.2500   24.8727   72.4719 H   0  0  0  0  0  0  0  0  0  0  0  0  # atno 3793 bound_to 171 
   -7.3419   23.7203   72.5073 H   0  0  0  0  0  0  0  0  0  0  0  0  # atno 3800 bound_to 178 
  -15.0504    9.0867   77.5430 H   0  0  0  0  0  0  0  0  0  0  0  0  # atno 3973 bound_to 1471
  -21.0196   12.7175   64.3693 H   0  0  0  0  0  0  0  0  0  0  0  0  # atno 4183 bound_to 1244
  -13.4269   15.1553   60.7713 H   0  0  0  0  0  0  0  0  0  0  0  0  # atno 4268 bound_to 1114
  -15.8394   20.1708   59.4413 H   0  0  0  0  0  0  0  0  0  0  0  0  # atno 4280 bound_to 1130
  -12.1033   15.4158   57.5515 H   0  0  0  0  0  0  0  0  0  0  0  0  # atno 4409 bound_to 924 
  -15.6994    7.9536   78.5139 LP  0  0  0  0  0  0  0  0  0  0  0  0  # atno 4696 bound_to 1471
  -15.2866    7.5787   76.9790 LP  0  0  0  0  0  0  0  0  0  0  0  0  # atno 4697 bound_to 1471
  -14.6657   17.0070   76.3580 LP  0  0  0  0  0  0  0  0  0  0  0  0  # atno 4731 bound_to 414 
  -13.9655   18.2205   75.5191 LP  0  0  0  0  0  0  0  0  0  0  0  0  # atno 4732 bound_to 414 
  -14.0301   16.3083   61.7484 LP  0  0  0  0  0  0  0  0  0  0  0  0  # atno 4733 bound_to 1114
  -12.4565   15.8850   61.8548 LP  0  0  0  0  0  0  0  0  0  0  0  0  # atno 4734 bound_to 1114
  -10.5530   14.9505   57.7182 LP  0  0  0  0  0  0  0  0  0  0  0  0  # atno 4763 bound_to 924 
  -11.2025   15.1186   56.2294 LP  0  0  0  0  0  0  0  0  0  0  0  0  # atno 4764 bound_to 924 
  -19.9911   13.9304   64.0244 LP  0  0  0  0  0  0  0  0  0  0  0  0  # atno 4771 bound_to 1244
  -20.3519   12.8141   62.8885 LP  0  0  0  0  0  0  0  0  0  0  0  0  # atno 4772 bound_to 1244
   -6.0547   23.4257   71.5563 LP  0  0  0  0  0  0  0  0  0  0  0  0  # atno 4775 bound_to 178 
   -7.2157   22.2918   71.7381 LP  0  0  0  0  0  0  0  0  0  0  0  0  # atno 4776 bound_to 178 
   -1.7590   24.2243   72.5385 LP  0  0  0  0  0  0  0  0  0  0  0  0  # atno 4779 bound_to 171 
   -2.9483   23.4618   71.7195 LP  0  0  0  0  0  0  0  0  0  0  0  0  # atno 4780 bound_to 171 
   -8.6827   26.3411   64.0251 LP  0  0  0  0  0  0  0  0  0  0  0  0  # atno 4783 bound_to 185 
   -8.0377   25.0359   63.2855 LP  0  0  0  0  0  0  0  0  0  0  0  0  # atno 4784 bound_to 185 
   -2.6650   16.7323   72.5483 LP  0  0  0  0  0  0  0  0  0  0  0  0  # atno 4785 bound_to 346 
   -1.9366   18.0882   73.0940 LP  0  0  0  0  0  0  0  0  0  0  0  0  # atno 4786 bound_to 346 
   -2.7104   22.0046   75.4932 LP  0  0  0  0  0  0  0  0  0  0  0  0  # atno 4787 bound_to 339 
   -3.6086   21.6494   74.1766 LP  0  0  0  0  0  0  0  0  0  0  0  0  # atno 4788 bound_to 339 
   -8.2364   28.3982   65.4491 LP  0  0  0  0  0  0  0  0  0  0  0  0  # atno 4797 bound_to 154 
   -6.7113   28.9633   65.3036 LP  0  0  0  0  0  0  0  0  0  0  0  0  # atno 4798 bound_to 154 

$$$$
