#       Name:                unknown
#       Creating user name   williammccorkindale
#       Creation time:       Tue Jun  7 14:55:36 2022


#       File generated by GOLD software.
#

@<TRIPOS>MOLECULE
unknown|prepared_Mpro-x0072|mol2|1|dock5
    27    27     1
SMALL
NO_CHARGES


@<TRIPOS>ATOM
      1 C1         -12.7095  13.1648  65.2455 C.3            1 RES1               0.0000
      2 S2         -11.5514  13.8450  66.4317 S.o2           1 RES1               0.0000
      3 O3         -10.4253  12.8841  66.6476 O.2            1 RES1               0.0000
      4 O4         -10.9822  15.0889  65.8059 O.2            1 RES1               0.0000
      5 N5         -12.3037  14.2099  67.9219 N.3            1 RES1               0.0000
      6 C6         -11.3956  14.8770  68.8399 C.3            1 RES1               0.0000
      7 C7         -12.0832  15.9338  69.6434 C.3            1 RES1               0.0000
      8 C8         -12.3508  15.5164  71.0379 C.ar           1 RES1               0.0000
      9 C9         -13.2013  14.4494  71.3062 C.ar           1 RES1               0.0000
     10 C10        -13.4589  14.0507  72.6010 C.ar           1 RES1               0.0000
     11 C11        -12.8775  14.7016  73.6778 C.ar           1 RES1               0.0000
     12 C12        -12.0239  15.7715  73.4235 C.ar           1 RES1               0.0000
     13 C13        -11.7717  16.1645  72.1117 C.ar           1 RES1               0.0000
     14 H14        -12.2267  12.3748  64.6353 H              1 RES1               0.0000
     15 H15        -13.5037  12.6615  65.8314 H              1 RES1               0.0000
     16 H16        -13.1651  13.9400  64.6193 H              1 RES1               0.0000
     17 H17        -13.1664  14.7621  67.7616 H              1 RES1               0.0000
     18 H18        -10.9692  14.1384  69.5372 H              1 RES1               0.0000
     19 H19        -10.5631  15.3622  68.2700 H              1 RES1               0.0000
     20 H20        -13.0265  16.1942  69.1263 H              1 RES1               0.0000
     21 H21        -11.4280  16.8436  69.6881 H              1 RES1               0.0000
     22 H22        -13.6804  13.9079  70.5018 H              1 RES1               0.0000
     23 H23        -14.1277  13.2151  72.7552 H              1 RES1               0.0000
     24 H24        -13.0794  14.3896  74.6834 H              1 RES1               0.0000
     25 H25        -11.5551  16.3007  74.2221 H              1 RES1               0.0000
     26 H26        -11.0959  17.0099  71.9405 H              1 RES1               0.0000
     27 ****       -12.5616  13.3485  68.3594 LP             1 RES1               0.0000
@<TRIPOS>BOND
    1    1    2 1     
    2    2    3 2     
    3    2    4 2     
    4    2    5 1     
    5    5    6 1     
    6    6    7 1     
    7    7    8 1     
    8    8    9 ar    
    9    9   10 ar    
   10   10   11 ar    
   11   11   12 ar    
   12   12   13 ar    
   13    8   13 ar    
   14    1   14 1     
   15    1   15 1     
   16    1   16 1     
   17    5   17 1     
   18    6   18 1     
   19    6   19 1     
   20    7   20 1     
   21    7   21 1     
   22    9   22 1     
   23   10   23 1     
   24   11   24 1     
   25   12   25 1     
   26   13   26 1     
   27    5   27 1     
@<TRIPOS>SUBSTRUCTURE
      1 RES1           1
@<TRIPOS>SET
LONE_PAIRS      STATIC     ATOMS    <user>   **** ""
3 3 4 27
DONOR_HYDROGENS      STATIC     ATOMS    <user>   **** ""
1 17
ATOM$BLUE        STATIC     ATOMS    COLORGROUP SYSTEM
3 3 4 27
ATOM$RED        STATIC     ATOMS    COLORGROUP SYSTEM
1 17
@<TRIPOS>COMMENT
> <Gold.Version>
2022.1.0

> <Gold.Id.Protein>
6LU7|6LU7_protein|mol2

> <Gold.Protein.RotatedTorsions>
[ 3973 1471 1470 1467 ] final -169.90 input   60.00 | X-H torsion
[ 3372  414  413  411 ] final -149.55 input   60.00 | X-H torsion
[ 4268 1114 1113 1110 ] final  166.28 input   59.99 | X-H torsion
[ 4409  924  923  921 ] final  153.30 input   59.99 | X-H torsion
[ 4183 1244 1243 1241 ] final  -28.97 input   59.99 | X-H torsion
[ 3800  178  177  174 ] final -111.04 input   60.00 | X-H torsion
[ 3793  171  170  167 ] final   16.19 input   60.00 | X-H torsion
[ 3576  185  184  181 ] final  169.83 input   60.00 | X-H torsion
[ 3523  346  345  342 ] final  -41.85 input   60.01 | X-H torsion
[ 3515  339  338  335 ] final  139.02 input   60.00 | X-H torsion
[ 3663  154  153  150 ] final  -37.54 input   60.00 | X-H torsion
[ 4280 1130 1129 1126 ] final    2.51 input   60.00 | X-H torsion

> <Gold.Protein.ActiveResidues>
 VAL20   THR21   CYS22   GLY23   THR24   THR25   THR26   LEU27   ASN28   PRO39  
 ARG40   HIS41   VAL42   CYS44   THR45   SER46   ASP48   MET49   LEU50   PRO52  
 TYR54   TYR118  ASN119  ILE136  GLY138  SER139  PHE140  LEU141  ASN142  GLY143 
 SER144  CYS145  GLY146  SER147  TYR161  HIS163  HIS164  MET165  GLU166  LEU167 
 PRO168  THR169  GLY170  VAL171  HIS172  ALA173  PHE181  PHE185  VAL186  ASP187 
 ARG188  GLN189  THR190  ALA191  GLN192  ALA193 

> <Gold.Protein.RotatedAtoms>
  -15.4393   17.0877   75.7922 H   0  0  0  0  0  0  0  0  0  0  0  0  # atno 3372 bound_to 414 
   -2.9456   22.2773   75.0616 H   0  0  0  0  0  0  0  0  0  0  0  0  # atno 3515 bound_to 339 
   -3.5941   17.3274   72.6918 H   0  0  0  0  0  0  0  0  0  0  0  0  # atno 3523 bound_to 346 
   -7.1813   26.3071   63.2150 H   0  0  0  0  0  0  0  0  0  0  0  0  # atno 3576 bound_to 185 
   -7.9622   28.2596   65.5018 H   0  0  0  0  0  0  0  0  0  0  0  0  # atno 3663 bound_to 154 
   -3.5583   24.3480   72.0633 H   0  0  0  0  0  0  0  0  0  0  0  0  # atno 3793 bound_to 171 
   -7.2090   22.2974   71.7336 H   0  0  0  0  0  0  0  0  0  0  0  0  # atno 3800 bound_to 178 
  -15.5865    8.4032   78.5615 H   0  0  0  0  0  0  0  0  0  0  0  0  # atno 3973 bound_to 1471
  -20.8266   13.1194   64.6210 H   0  0  0  0  0  0  0  0  0  0  0  0  # atno 4183 bound_to 1244
  -13.6127   15.2198   60.7737 H   0  0  0  0  0  0  0  0  0  0  0  0  # atno 4268 bound_to 1114
  -16.0551   20.3785   59.1138 H   0  0  0  0  0  0  0  0  0  0  0  0  # atno 4280 bound_to 1130
  -10.5429   14.9493   57.6923 H   0  0  0  0  0  0  0  0  0  0  0  0  # atno 4409 bound_to 924 
  -15.4739    7.3400   77.3348 LP  0  0  0  0  0  0  0  0  0  0  0  0  # atno 4696 bound_to 1471
  -14.9722    8.8807   77.1323 LP  0  0  0  0  0  0  0  0  0  0  0  0  # atno 4697 bound_to 1471
  -13.9442   17.5627   76.2249 LP  0  0  0  0  0  0  0  0  0  0  0  0  # atno 4731 bound_to 414 
  -14.7072   18.2922   74.9790 LP  0  0  0  0  0  0  0  0  0  0  0  0  # atno 4732 bound_to 414 
  -13.8969   16.3854   61.8731 LP  0  0  0  0  0  0  0  0  0  0  0  0  # atno 4733 bound_to 1114
  -12.4027   15.7428   61.7277 LP  0  0  0  0  0  0  0  0  0  0  0  0  # atno 4734 bound_to 1114
  -11.2284   15.1263   56.2271 LP  0  0  0  0  0  0  0  0  0  0  0  0  # atno 4763 bound_to 924 
  -12.0987   15.4126   57.5788 LP  0  0  0  0  0  0  0  0  0  0  0  0  # atno 4764 bound_to 924 
  -19.8570   13.8448   63.5339 LP  0  0  0  0  0  0  0  0  0  0  0  0  # atno 4771 bound_to 1244
  -20.6803   12.4949   63.1254 LP  0  0  0  0  0  0  0  0  0  0  0  0  # atno 4772 bound_to 1244
   -7.3490   23.7186   72.5139 LP  0  0  0  0  0  0  0  0  0  0  0  0  # atno 4775 bound_to 178 
   -6.0553   23.4318   71.5596 LP  0  0  0  0  0  0  0  0  0  0  0  0  # atno 4776 bound_to 178 
   -2.1609   24.8015   72.7628 LP  0  0  0  0  0  0  0  0  0  0  0  0  # atno 4779 bound_to 171 
   -2.2358   23.4130   71.9067 LP  0  0  0  0  0  0  0  0  0  0  0  0  # atno 4780 bound_to 171 
   -8.5863   26.4839   64.0167 LP  0  0  0  0  0  0  0  0  0  0  0  0  # atno 4783 bound_to 185 
   -8.1895   25.0390   63.3676 LP  0  0  0  0  0  0  0  0  0  0  0  0  # atno 4784 bound_to 185 
   -1.9925   17.0404   72.7123 LP  0  0  0  0  0  0  0  0  0  0  0  0  # atno 4785 bound_to 346 
   -2.5711   18.4911   73.1890 LP  0  0  0  0  0  0  0  0  0  0  0  0  # atno 4786 bound_to 346 
   -3.6715   21.0903   74.2178 LP  0  0  0  0  0  0  0  0  0  0  0  0  # atno 4787 bound_to 339 
   -2.8527   20.7398   75.5864 LP  0  0  0  0  0  0  0  0  0  0  0  0  # atno 4788 bound_to 339 
   -6.7137   29.2614   65.2087 LP  0  0  0  0  0  0  0  0  0  0  0  0  # atno 4797 bound_to 154 
   -8.2479   29.7835   65.0077 LP  0  0  0  0  0  0  0  0  0  0  0  0  # atno 4798 bound_to 154 

> <Gold.Score>
     Score     S(PLP)   S(hbond)     S(cho)   S(metal)  DE(clash)   DE(tors)     intcor
     42.14     -40.36       0.99       0.00       0.00       0.00       0.61       0.03

> <Gold.PLP.Fitness>
42.1422

> <Gold.PLP.PLP>
-40.3617

> <Gold.PLP.part.hbond>
-1.0000

> <Gold.PLP.part.metal>
0.0000

> <Gold.PLP.part.buried>
-5.5205

> <Gold.PLP.part.nonpolar>
-35.1008

> <Gold.PLP.part.repulsive>
0.1105

> <Gold.PLP.ligand.clash>
0.0000

> <Gold.PLP.ligand.torsion>
0.6121

> <Gold.PLP.Chemscore.Hbond>
0.9913

> <Gold.PLP.Chemscore.CHOScore>
0.0000

> <Gold.PLP.Chemscore.Metal>
0.0000

> <Gold.Chemscore.Hbonds>
donor molecule, donor type, donor heavy atom, donor atom, acceptor molecule, acceptor atom, score
      L1  H     5    17       P1  1266  0.99

> <Gold.PLP.Chemscore.Internal.Correction>
0.0310

