unknown|prepared_Mpro-x0305|sdf|1|dock5
  -GOLD-   5 72214353D 1   1.00000     0.00000

 20 20  0  0  0  0  0  0  0  0  1 V2000
  -12.2912   15.3497   70.0032 C   0  0  0  0  0  0  0  0  0  0  0  0
  -11.6597   15.4002   68.6443 C   0  0  0  0  0  0  0  0  0  0  0  0
  -12.4829   14.7029   67.7049 N   0  0  0  0  0  0  0  0  0  0  0  0
  -11.8975   13.9399   66.6418 C   0  0  0  0  0  0  0  0  0  0  0  0
  -12.6536   13.4414   65.6009 C   0  0  0  0  0  0  0  0  0  0  0  0
  -12.1169   12.7028   64.5626 C   0  0  0  0  0  0  0  0  0  0  0  0
  -10.7587   12.4437   64.5543 C   0  0  0  0  0  0  0  0  0  0  0  0
  -10.1286   11.6824   63.5076 C   0  0  0  0  0  0  0  0  0  0  0  0
   -9.6063   11.0647   62.6745 N   0  0  0  0  0  0  0  0  0  0  0  0
  -10.0292   12.9554   65.6087 C   0  0  0  0  0  0  0  0  0  0  0  0
  -10.5803   13.6719   66.6066 N   0  0  0  0  0  0  0  0  0  0  0  0
  -11.7499   15.9332   70.7631 H   0  0  0  0  0  0  0  0  0  0  0  0
  -12.3032   14.2692   70.3112 H   0  0  0  0  0  0  0  0  0  0  0  0
  -13.3501   15.6516   69.8979 H   0  0  0  0  0  0  0  0  0  0  0  0
  -10.6419   14.9219   68.7572 H   0  0  0  0  0  0  0  0  0  0  0  0
  -11.4245   16.4472   68.3251 H   0  0  0  0  0  0  0  0  0  0  0  0
  -13.5176   14.7532   67.7986 H   0  0  0  0  0  0  0  0  0  0  0  0
  -13.7307   13.6575   65.6248 H   0  0  0  0  0  0  0  0  0  0  0  0
  -12.7159   12.3188   63.7558 H   0  0  0  0  0  0  0  0  0  0  0  0
   -8.9485   12.7478   65.5995 H   0  0  0  0  0  0  0  0  0  0  0  0
  1  2  1  0  0  0  0
  2  3  1  0  0  0  0
  3  4  1  0  0  0  0
  4  5  2  0  0  0  0
  5  6  1  0  0  0  0
  6  7  2  0  0  0  0
  7  8  1  0  0  0  0
  8  9  3  0  0  0  0
  7 10  1  0  0  0  0
 10 11  2  0  0  0  0
  4 11  1  0  0  0  0
  1 12  1  0  0  0  0
  1 13  1  0  0  0  0
  1 14  1  0  0  0  0
  2 15  1  0  0  0  0
  2 16  1  0  0  0  0
  3 17  1  0  0  0  0
  5 18  1  0  0  0  0
  6 19  1  0  0  0  0
 10 20  1  0  0  0  0
M  END
> <Gold.Version>
2022.1.0

> <Gold.Id.Protein>
6LU7|6LU7_protein|mol2

> <Gold.PLP.Fitness>
30.7847

> <Gold.PLP.PLP>
-25.1752

> <Gold.PLP.part.hbond>
-1.0000

> <Gold.PLP.part.metal>
0.0000

> <Gold.PLP.part.buried>
-5.0736

> <Gold.PLP.part.nonpolar>
-20.2987

> <Gold.PLP.part.repulsive>
0.3807

> <Gold.PLP.ligand.clash>
0.0000

> <Gold.PLP.ligand.torsion>
0.1958

> <Gold.PLP.Chemscore.Hbond>
1.0000

> <Gold.PLP.Chemscore.CHOScore>
1.0000

> <Gold.PLP.Chemscore.Metal>
0.0000

> <Gold.Chemscore.Hbonds>
donor molecule, donor type, donor heavy atom, donor atom, acceptor molecule, acceptor atom, score
      L1  H     3    17       P1  1266  1.00
      L1  C    10    20       P1  1103  1.00

> <Gold.PLP.Chemscore.Internal.Correction>
0.0011

> <Gold.Protein.RotatedTorsions>
[ 3973 1471 1470 1467 ] final  147.31 input   60.00 | X-H torsion
[ 3372  414  413  411 ] final -152.11 input   60.00 | X-H torsion
[ 4268 1114 1113 1110 ] final  -91.88 input   59.99 | X-H torsion
[ 4409  924  923  921 ] final -148.86 input   59.99 | X-H torsion
[ 4183 1244 1243 1241 ] final  126.00 input   59.99 | X-H torsion
[ 3800  178  177  174 ] final  -18.92 input   60.00 | X-H torsion
[ 3793  171  170  167 ] final -173.57 input   60.00 | X-H torsion
[ 3576  185  184  181 ] final  -11.85 input   60.00 | X-H torsion
[ 3523  346  345  342 ] final -174.41 input   60.01 | X-H torsion
[ 3515  339  338  335 ] final  167.63 input   60.00 | X-H torsion
[ 3663  154  153  150 ] final   69.40 input   60.00 | X-H torsion
[ 4280 1130 1129 1126 ] final   82.63 input   60.00 | X-H torsion

> <Gold.Protein.ActiveResidues>
 VAL20   THR21   CYS22   GLY23   THR24   THR25   THR26   LEU27   ASN28   PRO39  
 ARG40   HIS41   VAL42   CYS44   THR45   SER46   ASP48   MET49   LEU50   PRO52  
 TYR54   TYR118  ASN119  ILE136  GLY138  SER139  PHE140  LEU141  ASN142  GLY143 
 SER144  CYS145  GLY146  SER147  TYR161  HIS163  HIS164  MET165  GLU166  LEU167 
 PRO168  THR169  GLY170  VAL171  HIS172  ALA173  PHE181  PHE185  VAL186  ASP187 
 ARG188  GLN189  THR190  ALA191  GLN192  ALA193 

> <Gold.Protein.RotatedAtoms>
  -15.4190   17.0696   75.8240 H   0  0  0  0  0  0  0  0  0  0  0  0  # atno 3372 bound_to 414 
   -2.7467   22.0705   75.4244 H   0  0  0  0  0  0  0  0  0  0  0  0  # atno 3515 bound_to 339 
   -1.8868   17.2026   72.7815 H   0  0  0  0  0  0  0  0  0  0  0  0  # atno 3523 bound_to 346 
   -8.7778   25.5563   63.8412 H   0  0  0  0  0  0  0  0  0  0  0  0  # atno 3576 bound_to 185 
   -8.3902   29.6311   65.0553 H   0  0  0  0  0  0  0  0  0  0  0  0  # atno 3663 bound_to 154 
   -1.7690   23.8967   72.3361 H   0  0  0  0  0  0  0  0  0  0  0  0  # atno 3793 bound_to 171 
   -6.1189   23.0150   71.3947 H   0  0  0  0  0  0  0  0  0  0  0  0  # atno 3800 bound_to 178 
  -15.7172    7.7511   78.4054 H   0  0  0  0  0  0  0  0  0  0  0  0  # atno 3973 bound_to 1471
  -20.3212   12.8577   62.8839 H   0  0  0  0  0  0  0  0  0  0  0  0  # atno 4183 bound_to 1244
  -12.4028   15.5374   61.5138 H   0  0  0  0  0  0  0  0  0  0  0  0  # atno 4268 bound_to 1114
  -15.5473   19.4166   59.6325 H   0  0  0  0  0  0  0  0  0  0  0  0  # atno 4280 bound_to 1130
  -11.3137   15.1885   58.1027 H   0  0  0  0  0  0  0  0  0  0  0  0  # atno 4409 bound_to 924 
  -15.1972    7.7578   76.8634 LP  0  0  0  0  0  0  0  0  0  0  0  0  # atno 4696 bound_to 1471
  -15.1172    9.1196   77.7610 LP  0  0  0  0  0  0  0  0  0  0  0  0  # atno 4697 bound_to 1471
  -13.9260   17.5940   76.2034 LP  0  0  0  0  0  0  0  0  0  0  0  0  # atno 4731 bound_to 414 
  -14.7459   18.2792   74.9685 LP  0  0  0  0  0  0  0  0  0  0  0  0  # atno 4732 bound_to 414 
  -13.8688   15.3580   60.8308 LP  0  0  0  0  0  0  0  0  0  0  0  0  # atno 4733 bound_to 1114
  -13.6492   16.4504   62.0246 LP  0  0  0  0  0  0  0  0  0  0  0  0  # atno 4734 bound_to 1114
  -10.4938   14.9146   56.7241 LP  0  0  0  0  0  0  0  0  0  0  0  0  # atno 4763 bound_to 924 
  -12.0570   15.3835   56.6684 LP  0  0  0  0  0  0  0  0  0  0  0  0  # atno 4764 bound_to 924 
  -21.0326   12.6773   64.3363 LP  0  0  0  0  0  0  0  0  0  0  0  0  # atno 4771 bound_to 1244
  -20.0137   13.9259   64.0724 LP  0  0  0  0  0  0  0  0  0  0  0  0  # atno 4772 bound_to 1244
   -7.5202   22.4674   72.0151 LP  0  0  0  0  0  0  0  0  0  0  0  0  # atno 4775 bound_to 178 
   -6.9818   23.9603   72.3997 LP  0  0  0  0  0  0  0  0  0  0  0  0  # atno 4776 bound_to 178 
   -3.2701   23.6739   71.7490 LP  0  0  0  0  0  0  0  0  0  0  0  0  # atno 4779 bound_to 171 
   -2.9288   24.9952   72.6457 LP  0  0  0  0  0  0  0  0  0  0  0  0  # atno 4780 bound_to 171 
   -7.3651   25.4267   63.0442 LP  0  0  0  0  0  0  0  0  0  0  0  0  # atno 4783 bound_to 185 
   -7.8028   26.8524   63.7093 LP  0  0  0  0  0  0  0  0  0  0  0  0  # atno 4784 bound_to 185 
   -2.7765   18.5061   73.1782 LP  0  0  0  0  0  0  0  0  0  0  0  0  # atno 4785 bound_to 346 
   -3.5064   17.1510   72.6327 LP  0  0  0  0  0  0  0  0  0  0  0  0  # atno 4786 bound_to 346 
   -3.6332   21.5513   74.1625 LP  0  0  0  0  0  0  0  0  0  0  0  0  # atno 4787 bound_to 339 
   -3.0913   20.4871   75.2762 LP  0  0  0  0  0  0  0  0  0  0  0  0  # atno 4788 bound_to 339 
   -7.7558   28.2067   65.5209 LP  0  0  0  0  0  0  0  0  0  0  0  0  # atno 4797 bound_to 154 
   -6.7748   29.4569   65.1450 LP  0  0  0  0  0  0  0  0  0  0  0  0  # atno 4798 bound_to 154 

$$$$
