#       Name:                unknown
#       Creating user name   williammccorkindale
#       Creation time:       Tue Jun  7 14:55:40 2022


#       File generated by GOLD software.
#

@<TRIPOS>MOLECULE
unknown|prepared_Mpro-x0995|mol2|1|dock5
    14    14     1
SMALL
NO_CHARGES


@<TRIPOS>ATOM
      1 N1         -11.4774  13.9233  70.3930 N.pl3          1 RES1               0.0000
      2 C2         -12.2056  14.6588  71.3702 C.ar           1 RES1               0.0000
      3 C3         -13.5325  15.0092  71.2036 C.ar           1 RES1               0.0000
      4 N4         -14.1812  15.7161  72.1757 N.ar           1 RES1               0.0000
      5 C5         -13.5416  16.0770  73.2984 C.ar           1 RES1               0.0000
      6 N6         -12.2686  15.7572  73.4907 N.ar           1 RES1               0.0000
      7 C7         -11.5861  15.0506  72.5406 C.ar           1 RES1               0.0000
      8 H8         -11.9255  13.6078  69.4835 H              1 RES1               0.0000
      9 H9         -10.4794  13.6632  70.5248 H              1 RES1               0.0000
     10 H10        -14.0161  14.7091  70.3010 H              1 RES1               0.0000
     11 H11        -14.0770  16.6349  74.0504 H              1 RES1               0.0000
     12 H12        -10.5580  14.7802  72.6722 H              1 RES1               0.0000
     13 ****       -15.1410  15.9668  72.0495 LP             1 RES1               0.0000
     14 ****       -11.8069  16.0342  74.3334 LP             1 RES1               0.0000
@<TRIPOS>BOND
    1    1    2 1     
    2    2    3 ar    
    3    3    4 ar    
    4    4    5 ar    
    5    5    6 ar    
    6    6    7 ar    
    7    2    7 ar    
    8    1    8 1     
    9    1    9 1     
   10    3   10 1     
   11    5   11 1     
   12    7   12 1     
   13    4   13 1     
   14    6   14 1     
@<TRIPOS>SUBSTRUCTURE
      1 RES1           1
@<TRIPOS>SET
LONE_PAIRS      STATIC     ATOMS    <user>   **** ""
2 13 14
DONOR_HYDROGENS      STATIC     ATOMS    <user>   **** ""
2 8 9
ATOM$BLUE        STATIC     ATOMS    COLORGROUP SYSTEM
2 13 14
ATOM$RED        STATIC     ATOMS    COLORGROUP SYSTEM
2 8 9
@<TRIPOS>COMMENT
> <Gold.Version>
2022.1.0

> <Gold.Id.Protein>
6LU7|6LU7_protein|mol2

> <Gold.Protein.RotatedTorsions>
[ 3973 1471 1470 1467 ] final   39.76 input   60.00 | X-H torsion
[ 3372  414  413  411 ] final  141.19 input   60.00 | X-H torsion
[ 4268 1114 1113 1110 ] final   -7.56 input   59.99 | X-H torsion
[ 4409  924  923  921 ] final  -66.48 input   59.99 | X-H torsion
[ 4183 1244 1243 1241 ] final  103.45 input   59.99 | X-H torsion
[ 3800  178  177  174 ] final -105.21 input   60.00 | X-H torsion
[ 3793  171  170  167 ] final -159.07 input   60.00 | X-H torsion
[ 3576  185  184  181 ] final  -47.00 input   60.00 | X-H torsion
[ 3523  346  345  342 ] final  -66.16 input   60.01 | X-H torsion
[ 3515  339  338  335 ] final  170.69 input   60.00 | X-H torsion
[ 3663  154  153  150 ] final  -52.67 input   60.00 | X-H torsion
[ 4280 1130 1129 1126 ] final -137.41 input   60.00 | X-H torsion

> <Gold.Protein.ActiveResidues>
 VAL20   THR21   CYS22   GLY23   THR24   THR25   THR26   LEU27   ASN28   PRO39  
 ARG40   HIS41   VAL42   CYS44   THR45   SER46   ASP48   MET49   LEU50   PRO52  
 TYR54   TYR118  ASN119  ILE136  GLY138  SER139  PHE140  LEU141  ASN142  GLY143 
 SER144  CYS145  GLY146  SER147  TYR161  HIS163  HIS164  MET165  GLU166  LEU167 
 PRO168  THR169  GLY170  VAL171  HIS172  ALA173  PHE181  PHE185  VAL186  ASP187 
 ARG188  GLN189  THR190  ALA191  GLN192  ALA193 

> <Gold.Protein.RotatedAtoms>
  -14.5522   17.0580   76.3792 H   0  0  0  0  0  0  0  0  0  0  0  0  # atno 3372 bound_to 414 
   -2.7307   22.0369   75.4579 H   0  0  0  0  0  0  0  0  0  0  0  0  # atno 3515 bound_to 339 
   -3.3802   17.0109   72.5947 H   0  0  0  0  0  0  0  0  0  0  0  0  # atno 3523 bound_to 346 
   -8.4885   25.1565   63.5657 H   0  0  0  0  0  0  0  0  0  0  0  0  # atno 3576 bound_to 185 
   -7.7215   28.2106   65.5228 H   0  0  0  0  0  0  0  0  0  0  0  0  # atno 3663 bound_to 154 
   -1.7482   24.0956   72.4619 H   0  0  0  0  0  0  0  0  0  0  0  0  # atno 3793 bound_to 171 
   -7.1320   22.2851   71.6791 H   0  0  0  0  0  0  0  0  0  0  0  0  # atno 3800 bound_to 178 
  -15.2744    7.6014   76.9691 H   0  0  0  0  0  0  0  0  0  0  0  0  # atno 3973 bound_to 1471
  -20.5556   12.6058   63.0091 H   0  0  0  0  0  0  0  0  0  0  0  0  # atno 4183 bound_to 1244
  -13.0899   16.3813   62.1423 H   0  0  0  0  0  0  0  0  0  0  0  0  # atno 4268 bound_to 1114
  -16.2051   18.9773   58.0612 H   0  0  0  0  0  0  0  0  0  0  0  0  # atno 4280 bound_to 1130
  -12.1795   15.4334   57.2596 H   0  0  0  0  0  0  0  0  0  0  0  0  # atno 4409 bound_to 924 
  -15.0573    9.0994   77.5665 LP  0  0  0  0  0  0  0  0  0  0  0  0  # atno 4696 bound_to 1471
  -15.7031    7.9289   78.5043 LP  0  0  0  0  0  0  0  0  0  0  0  0  # atno 4697 bound_to 1471
  -14.0338   18.2697   75.4246 LP  0  0  0  0  0  0  0  0  0  0  0  0  # atno 4731 bound_to 414 
  -15.5111   17.6151   75.1883 LP  0  0  0  0  0  0  0  0  0  0  0  0  # atno 4732 bound_to 414 
  -12.6414   15.2124   61.1028 LP  0  0  0  0  0  0  0  0  0  0  0  0  # atno 4733 bound_to 1114
  -14.1847   15.7460   61.1197 LP  0  0  0  0  0  0  0  0  0  0  0  0  # atno 4734 bound_to 1114
  -10.7582   15.0161   57.9332 LP  0  0  0  0  0  0  0  0  0  0  0  0  # atno 4763 bound_to 924 
  -10.9207   15.0353   56.3084 LP  0  0  0  0  0  0  0  0  0  0  0  0  # atno 4764 bound_to 924 
  -20.9210   12.9510   64.5568 LP  0  0  0  0  0  0  0  0  0  0  0  0  # atno 4771 bound_to 1244
  -19.8893   13.9059   63.7259 LP  0  0  0  0  0  0  0  0  0  0  0  0  # atno 4772 bound_to 1244
   -7.4142   23.6488   72.5211 LP  0  0  0  0  0  0  0  0  0  0  0  0  # atno 4775 bound_to 178 
   -6.0676   23.5140   71.6072 LP  0  0  0  0  0  0  0  0  0  0  0  0  # atno 4776 bound_to 178 
   -3.0820   23.5310   71.7204 LP  0  0  0  0  0  0  0  0  0  0  0  0  # atno 4779 bound_to 171 
   -3.1379   24.9377   72.5477 LP  0  0  0  0  0  0  0  0  0  0  0  0  # atno 4780 bound_to 171 
   -7.1517   25.9525   63.0891 LP  0  0  0  0  0  0  0  0  0  0  0  0  # atno 4783 bound_to 185 
   -8.3075   26.7293   63.9419 LP  0  0  0  0  0  0  0  0  0  0  0  0  # atno 4784 bound_to 185 
   -1.8125   17.3685   72.8446 LP  0  0  0  0  0  0  0  0  0  0  0  0  # atno 4785 bound_to 346 
   -2.9664   18.4817   73.1545 LP  0  0  0  0  0  0  0  0  0  0  0  0  # atno 4786 bound_to 346 
   -3.6218   21.6000   74.1683 LP  0  0  0  0  0  0  0  0  0  0  0  0  # atno 4787 bound_to 339 
   -3.1189   20.4722   75.2368 LP  0  0  0  0  0  0  0  0  0  0  0  0  # atno 4788 bound_to 339 
   -6.7887   29.4864   65.1353 LP  0  0  0  0  0  0  0  0  0  0  0  0  # atno 4797 bound_to 154 
   -8.4154   29.6078   65.0598 LP  0  0  0  0  0  0  0  0  0  0  0  0  # atno 4798 bound_to 154 

> <Gold.Score>
     Score     S(PLP)   S(hbond)     S(cho)   S(metal)  DE(clash)   DE(tors)     intcor
     29.65     -19.78       0.99       2.30       0.00       0.00       0.00       0.00

> <Gold.PLP.Fitness>
29.6489

> <Gold.PLP.PLP>
-19.7769

> <Gold.PLP.part.hbond>
-1.4606

> <Gold.PLP.part.metal>
0.0000

> <Gold.PLP.part.buried>
-3.8827

> <Gold.PLP.part.nonpolar>
-15.2944

> <Gold.PLP.part.repulsive>
0.2405

> <Gold.PLP.ligand.clash>
0.0000

> <Gold.PLP.ligand.torsion>
0.0000

> <Gold.PLP.Chemscore.Hbond>
0.9920

> <Gold.PLP.Chemscore.CHOScore>
2.2987

> <Gold.PLP.Chemscore.Metal>
0.0000

> <Gold.Chemscore.Hbonds>
donor molecule, donor type, donor heavy atom, donor atom, acceptor molecule, acceptor atom, score
      L1  H     1     9       P1  1464  0.99
      L1  C     3    10       P1  1266  1.00
      L1  C     5    11       P1  1441  0.88
      L1  C     5    11       P1   414  0.14
      L1  C     7    12       P1  1464  0.28

> <Gold.PLP.Chemscore.Internal.Correction>
0.0000

