#       Name:                unknown
#       Creating user name   williammccorkindale
#       Creation time:       Tue Jun  7 14:55:43 2022


#       File generated by GOLD software.
#

@<TRIPOS>MOLECULE
unknown|prepared_Mpro-x0397|mol2|1|dock4
    35    36     1
SMALL
NO_CHARGES


@<TRIPOS>ATOM
      1 C1          -9.8290  14.7366  68.6401 C.3            1 RES1               0.0000
      2 N2         -11.2406  15.0307  68.7717 N.am           1 RES1               0.0000
      3 C3         -12.0299  15.2414  67.5856 C.3            1 RES1               0.0000
      4 C4         -11.9501  14.0809  66.6564 C.2            1 RES1               0.0000
      5 C5         -12.5732  13.8834  65.4417 C.2            1 RES1               0.0000
      6 C6         -12.1735  12.6315  64.9594 C.2            1 RES1               0.0000
      7 C7         -12.6011  12.0079  63.6794 C.3            1 RES1               0.0000
      8 O8         -11.3578  12.1444  65.8673 O.3            1 RES1               0.0000
      9 N9         -11.2164  12.9718  66.8590 N.2            1 RES1               0.0000
     10 C10        -11.7791  15.0970  70.0840 C.2            1 RES1               0.0000
     11 O11        -11.0524  15.0404  71.1059 O.2            1 RES1               0.0000
     12 N12        -13.1805  15.2322  70.3261 N.am           1 RES1               0.0000
     13 C13        -13.7581  15.3023  71.6391 C.3            1 RES1               0.0000
     14 C14        -15.0297  14.4564  71.7985 C.3            1 RES1               0.0000
     15 C15        -13.7456  14.0326  72.4911 C.3            1 RES1               0.0000
     16 H16         -9.4304  14.2067  69.5486 H              1 RES1               0.0000
     17 H17         -9.2569  15.7053  68.6181 H              1 RES1               0.0000
     18 H18         -9.5891  14.1092  67.7809 H              1 RES1               0.0000
     19 H19        -13.0743  15.4751  67.8753 H              1 RES1               0.0000
     20 H20        -11.6537  16.1739  67.0787 H              1 RES1               0.0000
     21 H21        -13.2431  14.5820  64.9692 H              1 RES1               0.0000
     22 H22        -11.8463  11.3292  63.2657 H              1 RES1               0.0000
     23 H23        -12.8067  12.7907  62.9042 H              1 RES1               0.0000
     24 H24        -13.5741  11.4695  63.8260 H              1 RES1               0.0000
     25 H25        -13.8196  15.2827  69.5096 H              1 RES1               0.0000
     26 H26        -13.7267  16.2728  72.1857 H              1 RES1               0.0000
     27 H27        -15.3737  13.8654  70.9319 H              1 RES1               0.0000
     28 H28        -15.8367  14.8724  72.4351 H              1 RES1               0.0000
     29 H29        -13.7475  14.1426  73.5882 H              1 RES1               0.0000
     30 H30        -13.2157  13.1940  72.0309 H              1 RES1               0.0000
     31 ****       -10.4645  11.9793  65.4493 LP             1 RES1               0.0000
     32 ****       -11.7292  11.2821  66.2114 LP             1 RES1               0.0000
     33 ****       -10.6422  12.8072  67.6610 LP             1 RES1               0.0000
     34 ****       -10.0615  14.9457  71.0102 LP             1 RES1               0.0000
     35 ****       -11.4644  15.0900  72.0158 LP             1 RES1               0.0000
@<TRIPOS>BOND
    1    1    2 1     
    2    2    3 1     
    3    3    4 1     
    4    4    5 1     
    5    5    6 2     
    6    6    7 1     
    7    6    8 1     
    8    8    9 1     
    9    2   10 am    
   10   10   11 2     
   11   10   12 am    
   12   12   13 1     
   13   13   14 1     
   14   14   15 1     
   15    4    9 2     
   16   15   13 1     
   17    1   16 1     
   18    1   17 1     
   19    1   18 1     
   20    3   19 1     
   21    3   20 1     
   22    5   21 1     
   23    7   22 1     
   24    7   23 1     
   25    7   24 1     
   26   12   25 1     
   27   13   26 1     
   28   14   27 1     
   29   14   28 1     
   30   15   29 1     
   31   15   30 1     
   32    8   31 1     
   33    8   32 1     
   34    9   33 1     
   35   11   34 1     
   36   11   35 1     
@<TRIPOS>SUBSTRUCTURE
      1 RES1           1
@<TRIPOS>SET
LONE_PAIRS      STATIC     ATOMS    <user>   **** ""
5 31 32 33 34 35
DONOR_HYDROGENS      STATIC     ATOMS    <user>   **** ""
1 25
ATOM$BLUE        STATIC     ATOMS    COLORGROUP SYSTEM
5 31 32 33 34 35
ATOM$RED        STATIC     ATOMS    COLORGROUP SYSTEM
1 25
@<TRIPOS>COMMENT
> <Gold.Version>
2022.1.0

> <Gold.Id.Protein>
6LU7|6LU7_protein|mol2

> <Gold.Protein.RotatedTorsions>
[ 3973 1471 1470 1467 ] final -131.47 input   60.00 | X-H torsion
[ 3372  414  413  411 ] final  -32.85 input   60.00 | X-H torsion
[ 4268 1114 1113 1110 ] final -159.27 input   59.99 | X-H torsion
[ 4409  924  923  921 ] final  -42.67 input   59.99 | X-H torsion
[ 4183 1244 1243 1241 ] final  135.68 input   59.99 | X-H torsion
[ 3800  178  177  174 ] final  -41.59 input   60.00 | X-H torsion
[ 3793  171  170  167 ] final  141.90 input   60.00 | X-H torsion
[ 3576  185  184  181 ] final  -85.49 input   60.00 | X-H torsion
[ 3523  346  345  342 ] final   22.39 input   60.01 | X-H torsion
[ 3515  339  338  335 ] final -154.14 input   60.00 | X-H torsion
[ 3663  154  153  150 ] final   75.64 input   60.00 | X-H torsion
[ 4280 1130 1129 1126 ] final  104.29 input   60.00 | X-H torsion

> <Gold.Protein.ActiveResidues>
 VAL20   THR21   CYS22   GLY23   THR24   THR25   THR26   LEU27   ASN28   PRO39  
 ARG40   HIS41   VAL42   CYS44   THR45   SER46   ASP48   MET49   LEU50   PRO52  
 TYR54   TYR118  ASN119  ILE136  GLY138  SER139  PHE140  LEU141  ASN142  GLY143 
 SER144  CYS145  GLY146  SER147  TYR161  HIS163  HIS164  MET165  GLU166  LEU167 
 PRO168  THR169  GLY170  VAL171  HIS172  ALA173  PHE181  PHE185  VAL186  ASP187 
 ARG188  GLN189  THR190  ALA191  GLN192  ALA193 

> <Gold.Protein.RotatedAtoms>
  -14.7576   18.2723   74.9721 H   0  0  0  0  0  0  0  0  0  0  0  0  # atno 3372 bound_to 414 
   -2.6425   21.5430   75.7192 H   0  0  0  0  0  0  0  0  0  0  0  0  # atno 3515 bound_to 339 
   -3.3994   18.2411   73.0362 H   0  0  0  0  0  0  0  0  0  0  0  0  # atno 3523 bound_to 346 
   -7.9662   25.0504   63.2544 H   0  0  0  0  0  0  0  0  0  0  0  0  # atno 3576 bound_to 185 
   -8.3246   29.7059   65.0330 H   0  0  0  0  0  0  0  0  0  0  0  0  # atno 3663 bound_to 154 
   -2.1601   23.4493   71.9488 H   0  0  0  0  0  0  0  0  0  0  0  0  # atno 3793 bound_to 171 
   -6.2962   22.6954   71.3514 H   0  0  0  0  0  0  0  0  0  0  0  0  # atno 3800 bound_to 178 
  -15.3551    8.9099   78.2982 H   0  0  0  0  0  0  0  0  0  0  0  0  # atno 3973 bound_to 1471
  -20.2249   12.9823   62.8710 H   0  0  0  0  0  0  0  0  0  0  0  0  # atno 4183 bound_to 1244
  -13.0741   15.1101   60.8461 H   0  0  0  0  0  0  0  0  0  0  0  0  # atno 4268 bound_to 1114
  -15.5205   19.0875   59.5114 H   0  0  0  0  0  0  0  0  0  0  0  0  # atno 4280 bound_to 1130
  -12.1411   15.4149   56.8756 H   0  0  0  0  0  0  0  0  0  0  0  0  # atno 4409 bound_to 924 
  -15.6679    7.3575   77.9239 LP  0  0  0  0  0  0  0  0  0  0  0  0  # atno 4696 bound_to 1471
  -15.0112    8.3530   76.8084 LP  0  0  0  0  0  0  0  0  0  0  0  0  # atno 4697 bound_to 1471
  -15.4170   17.0589   75.8328 LP  0  0  0  0  0  0  0  0  0  0  0  0  # atno 4731 bound_to 414 
  -13.9210   17.6030   76.1970 LP  0  0  0  0  0  0  0  0  0  0  0  0  # atno 4732 bound_to 414 
  -14.1891   16.1067   61.4875 LP  0  0  0  0  0  0  0  0  0  0  0  0  # atno 4733 bound_to 1114
  -12.6528   16.1320   62.0404 LP  0  0  0  0  0  0  0  0  0  0  0  0  # atno 4734 bound_to 1114
  -11.0985   15.1212   58.0899 LP  0  0  0  0  0  0  0  0  0  0  0  0  # atno 4763 bound_to 924 
  -10.6190   14.9488   56.5385 LP  0  0  0  0  0  0  0  0  0  0  0  0  # atno 4764 bound_to 924 
  -21.0540   12.5801   64.2122 LP  0  0  0  0  0  0  0  0  0  0  0  0  # atno 4771 bound_to 1244
  -20.0893   13.8977   64.2095 LP  0  0  0  0  0  0  0  0  0  0  0  0  # atno 4772 bound_to 1244
   -7.6635   22.7307   72.2330 LP  0  0  0  0  0  0  0  0  0  0  0  0  # atno 4775 bound_to 178 
   -6.6600   24.0190   72.2253 LP  0  0  0  0  0  0  0  0  0  0  0  0  # atno 4776 bound_to 178 
   -3.5651   24.2674   72.0155 LP  0  0  0  0  0  0  0  0  0  0  0  0  # atno 4779 bound_to 171 
   -2.2399   24.8523   72.7693 LP  0  0  0  0  0  0  0  0  0  0  0  0  # atno 4780 bound_to 171 
   -7.2659   26.5177   63.3212 LP  0  0  0  0  0  0  0  0  0  0  0  0  # atno 4783 bound_to 185 
   -8.7193   26.2708   64.0234 LP  0  0  0  0  0  0  0  0  0  0  0  0  # atno 4784 bound_to 185 
   -2.9396   16.7619   72.5373 LP  0  0  0  0  0  0  0  0  0  0  0  0  # atno 4785 bound_to 346 
   -1.8200   17.8495   73.0172 LP  0  0  0  0  0  0  0  0  0  0  0  0  # atno 4786 bound_to 346 
   -3.4059   22.0801   74.3862 LP  0  0  0  0  0  0  0  0  0  0  0  0  # atno 4787 bound_to 339 
   -3.4235   20.4896   74.7557 LP  0  0  0  0  0  0  0  0  0  0  0  0  # atno 4788 bound_to 339 
   -7.8569   28.2232   65.5134 LP  0  0  0  0  0  0  0  0  0  0  0  0  # atno 4797 bound_to 154 
   -6.7397   29.3651   65.1750 LP  0  0  0  0  0  0  0  0  0  0  0  0  # atno 4798 bound_to 154 

> <Gold.Score>
     Score     S(PLP)   S(hbond)     S(cho)   S(metal)  DE(clash)   DE(tors)     intcor
     42.78     -40.13       1.00       0.00       0.00       0.00       0.20       0.05

> <Gold.PLP.Fitness>
42.7785

> <Gold.PLP.PLP>
-40.1282

> <Gold.PLP.part.hbond>
-1.0000

> <Gold.PLP.part.metal>
0.0000

> <Gold.PLP.part.buried>
-6.4425

> <Gold.PLP.part.nonpolar>
-33.7384

> <Gold.PLP.part.repulsive>
0.7359

> <Gold.PLP.ligand.clash>
0.0000

> <Gold.PLP.ligand.torsion>
0.1980

> <Gold.PLP.Chemscore.Hbond>
1.0000

> <Gold.PLP.Chemscore.CHOScore>
0.0000

> <Gold.PLP.Chemscore.Metal>
0.0000

> <Gold.Chemscore.Hbonds>
donor molecule, donor type, donor heavy atom, donor atom, acceptor molecule, acceptor atom, score
      L1  H    12    25       P1  1266  1.00

> <Gold.PLP.Chemscore.Internal.Correction>
0.0464

