#       Name:                xxxx
#       Creating user name   williammccorkindale
#       Creation time:       Sun May 22 19:49:22 2022


#       File generated by GOLD software.
#

@<TRIPOS>MOLECULE
xxxx|x0072|mol2|1|dock3
    26    26     1
SMALL
NO_CHARGES


@<TRIPOS>ATOM
      1 C01        -10.5132  19.7819  66.9906 C.3            1 LIG1101            0.0000
      2 S02        -10.0503  18.0325  67.1225 S.o2           1 LIG1101            0.0000
      3 O03         -8.7152  17.8631  67.7037 O.2            1 LIG1101            0.0000
      4 O04         -9.8281  17.4419  65.8136 O.2            1 LIG1101            0.0000
      5 N05        -11.2444  17.1726  67.9822 N.pl3          1 LIG1101            0.0000
      6 C06        -10.8922  16.7004  69.2964 C.3            1 LIG1101            0.0000
      7 C07        -11.1238  15.2138  69.5286 C.3            1 LIG1101            0.0000
      8 C08        -11.8750  15.1386  70.8488 C.ar           1 LIG1101            0.0000
      9 C09        -11.3951  15.7680  71.9899 C.ar           1 LIG1101            0.0000
     10 C10        -12.1239  15.6914  73.1651 C.ar           1 LIG1101            0.0000
     11 C11        -13.3342  15.0164  73.1920 C.ar           1 LIG1101            0.0000
     12 C12        -13.8149  14.3994  72.0446 C.ar           1 LIG1101            0.0000
     13 C13        -13.0818  14.4681  70.8769 C.ar           1 LIG1101            0.0000
     14 H1          -9.7964  20.3002  66.3554 H              1 LIG1101            0.0000
     15 H2         -11.5082  19.8622  66.5555 H              1 LIG1101            0.0000
     16 H3         -10.5128  20.2332  67.9817 H              1 LIG1101            0.0000
     17 H4         -12.1629  17.0010  67.5858 H              1 LIG1101            0.0000
     18 H5         -11.4852  17.2525  70.0240 H              1 LIG1101            0.0000
     19 H6          -9.8352  16.9070  69.4577 H              1 LIG1101            0.0000
     20 H7         -10.1749  14.6838  69.5965 H              1 LIG1101            0.0000
     21 H8         -11.7205  14.7883  68.7231 H              1 LIG1101            0.0000
     22 H9         -10.4548  16.3166  71.9609 H              1 LIG1101            0.0000
     23 H10        -11.7450  16.1628  74.0707 H              1 LIG1101            0.0000
     24 H11        -13.9096  14.9698  74.1154 H              1 LIG1101            0.0000
     25 H12        -14.7637  13.8651  72.0659 H              1 LIG1101            0.0000
     26 H13        -13.4573  13.9909  69.9729 H              1 LIG1101            0.0000
@<TRIPOS>BOND
    1    1    2 1     
    2    2    3 2     
    3    2    4 2     
    4    2    5 1     
    5    5    6 1     
    6    6    7 1     
    7    7    8 1     
    8    8    9 ar    
    9    9   10 ar    
   10   10   11 ar    
   11   11   12 ar    
   12    8   13 ar    
   13   12   13 ar    
   14    1   14 1     
   15    1   15 1     
   16    1   16 1     
   17    5   17 1     
   18    6   18 1     
   19    6   19 1     
   20    7   20 1     
   21    7   21 1     
   22    9   22 1     
   23   10   23 1     
   24   11   24 1     
   25   12   25 1     
   26   13   26 1     
@<TRIPOS>SUBSTRUCTURE
      1 LIG1101        1
@<TRIPOS>SET
LONE_PAIRS      STATIC     ATOMS    <user>   **** ""
2 3 4
DONOR_HYDROGENS      STATIC     ATOMS    <user>   **** ""
1 17
ATOM$BLUE        STATIC     ATOMS    COLORGROUP SYSTEM
2 3 4
ATOM$RED        STATIC     ATOMS    COLORGROUP SYSTEM
1 17
@<TRIPOS>COMMENT
> <Gold.Version>
2022.1.0

> <Gold.Id.Protein>
6LU7|6LU7_protein|mol2

> <Gold.Protein.RotatedTorsions>
[ 3973 1471 1470 1467 ] final  -52.37 input   60.00 | X-H torsion
[ 3372  414  413  411 ] final   84.88 input   60.00 | X-H torsion
[ 4268 1114 1113 1110 ] final -115.74 input   59.99 | X-H torsion
[ 4409  924  923  921 ] final   10.04 input   59.99 | X-H torsion
[ 4183 1244 1243 1241 ] final   83.98 input   59.99 | X-H torsion
[ 3800  178  177  174 ] final   83.97 input   60.00 | X-H torsion
[ 3793  171  170  167 ] final -112.69 input   60.00 | X-H torsion
[ 3576  185  184  181 ] final  -97.92 input   60.00 | X-H torsion
[ 3523  346  345  342 ] final  170.92 input   60.01 | X-H torsion
[ 3515  339  338  335 ] final  126.55 input   60.00 | X-H torsion
[ 3663  154  153  150 ] final   94.50 input   60.00 | X-H torsion
[ 4280 1130 1129 1126 ] final  129.79 input   60.00 | X-H torsion

> <Gold.Protein.ActiveResidues>
 VAL20   THR21   CYS22   GLY23   THR24   THR25   THR26   LEU27   ASN28   PRO39  
 ARG40   HIS41   VAL42   CYS44   THR45   SER46   ASP48   MET49   LEU50   PRO52  
 TYR54   TYR118  ASN119  ILE136  GLY138  SER139  PHE140  LEU141  ASN142  GLY143 
 SER144  CYS145  GLY146  SER147  TYR161  HIS163  HIS164  MET165  GLU166  LEU167 
 PRO168  THR169  GLY170  VAL171  HIS172  ALA173  PHE181  PHE185  VAL186  ASP187 
 ARG188  GLN189  THR190  ALA191  GLN192  ALA193 

> <Gold.Protein.RotatedAtoms>
  -13.9130   17.6326   76.1747 H   0  0  0  0  0  0  0  0  0  0  0  0  # atno 3372 bound_to 414 
   -3.0520   22.2993   74.8896 H   0  0  0  0  0  0  0  0  0  0  0  0  # atno 3515 bound_to 339 
   -1.8080   17.4130   72.8635 H   0  0  0  0  0  0  0  0  0  0  0  0  # atno 3523 bound_to 346 
   -7.7872   25.1019   63.1743 H   0  0  0  0  0  0  0  0  0  0  0  0  # atno 3576 bound_to 185 
   -8.0809   29.8851   64.9815 H   0  0  0  0  0  0  0  0  0  0  0  0  # atno 3663 bound_to 154 
   -2.0521   24.7083   72.7372 H   0  0  0  0  0  0  0  0  0  0  0  0  # atno 3793 bound_to 171 
   -6.7398   24.0119   72.2692 H   0  0  0  0  0  0  0  0  0  0  0  0  # atno 3800 bound_to 178 
  -14.9759    8.9011   77.1678 H   0  0  0  0  0  0  0  0  0  0  0  0  # atno 3973 bound_to 1471
  -20.7471   12.4547   63.2109 H   0  0  0  0  0  0  0  0  0  0  0  0  # atno 4183 bound_to 1244
  -12.5309   15.3049   61.2319 H   0  0  0  0  0  0  0  0  0  0  0  0  # atno 4268 bound_to 1114
  -15.5712   18.7774   59.2430 H   0  0  0  0  0  0  0  0  0  0  0  0  # atno 4280 bound_to 1130
  -11.5862   15.2373   56.2830 H   0  0  0  0  0  0  0  0  0  0  0  0  # atno 4409 bound_to 924 
  -15.6026    8.3667   78.5713 LP  0  0  0  0  0  0  0  0  0  0  0  0  # atno 4696 bound_to 1471
  -15.4584    7.3526   77.2995 LP  0  0  0  0  0  0  0  0  0  0  0  0  # atno 4697 bound_to 1471
  -14.7912   18.2622   74.9580 LP  0  0  0  0  0  0  0  0  0  0  0  0  # atno 4731 bound_to 414 
  -15.3973   17.0440   75.8609 LP  0  0  0  0  0  0  0  0  0  0  0  0  # atno 4732 bound_to 414 
  -14.1132   15.6083   61.0032 LP  0  0  0  0  0  0  0  0  0  0  0  0  # atno 4733 bound_to 1114
  -13.2759   16.4342   62.1361 LP  0  0  0  0  0  0  0  0  0  0  0  0  # atno 4734 bound_to 1114
  -11.8756   15.3510   57.8803 LP  0  0  0  0  0  0  0  0  0  0  0  0  # atno 4763 bound_to 924 
  -10.4008   14.8980   57.3450 LP  0  0  0  0  0  0  0  0  0  0  0  0  # atno 4764 bound_to 924 
  -20.7663   13.2137   64.6502 LP  0  0  0  0  0  0  0  0  0  0  0  0  # atno 4771 bound_to 1244
  -19.8511   13.7954   63.4293 LP  0  0  0  0  0  0  0  0  0  0  0  0  # atno 4772 bound_to 1244
   -6.2376   22.7655   71.3514 LP  0  0  0  0  0  0  0  0  0  0  0  0  # atno 4775 bound_to 178 
   -7.6391   22.6584   72.1826 LP  0  0  0  0  0  0  0  0  0  0  0  0  # atno 4776 bound_to 178 
   -2.3660   23.3818   71.8485 LP  0  0  0  0  0  0  0  0  0  0  0  0  # atno 4779 bound_to 171 
   -3.5478   24.4698   72.1423 LP  0  0  0  0  0  0  0  0  0  0  0  0  # atno 4780 bound_to 171 
   -7.3762   26.6567   63.4222 LP  0  0  0  0  0  0  0  0  0  0  0  0  # atno 4783 bound_to 185 
   -8.7893   26.0801   64.0031 LP  0  0  0  0  0  0  0  0  0  0  0  0  # atno 4784 bound_to 185 
   -3.0125   18.4700   73.1466 LP  0  0  0  0  0  0  0  0  0  0  0  0  # atno 4785 bound_to 346 
   -3.3498   16.9754   72.5818 LP  0  0  0  0  0  0  0  0  0  0  0  0  # atno 4786 bound_to 346 
   -3.6482   20.9045   74.3007 LP  0  0  0  0  0  0  0  0  0  0  0  0  # atno 4787 bound_to 339 
   -2.7689   20.9035   75.6767 LP  0  0  0  0  0  0  0  0  0  0  0  0  # atno 4788 bound_to 339 
   -8.1421   28.3345   65.4715 LP  0  0  0  0  0  0  0  0  0  0  0  0  # atno 4797 bound_to 154 
   -6.7000   29.0734   65.2688 LP  0  0  0  0  0  0  0  0  0  0  0  0  # atno 4798 bound_to 154 

> <Gold.Score>
     Score     S(PLP)   S(hbond)     S(cho)   S(metal)  DE(clash)   DE(tors)     intcor
     42.31     -40.23       1.00       0.00       0.00       0.00       1.01       1.10

> <Gold.PLP.Fitness>
42.3135

> <Gold.PLP.PLP>
-40.2315

> <Gold.PLP.part.hbond>
-1.6137

> <Gold.PLP.part.metal>
0.0000

> <Gold.PLP.part.buried>
-4.9986

> <Gold.PLP.part.nonpolar>
-34.9517

> <Gold.PLP.part.repulsive>
0.0093

> <Gold.PLP.ligand.clash>
0.0000

> <Gold.PLP.ligand.torsion>
1.0071

> <Gold.PLP.Chemscore.Hbond>
1.0000

> <Gold.PLP.Chemscore.CHOScore>
0.0000

> <Gold.PLP.Chemscore.Metal>
0.0000

> <Gold.Chemscore.Hbonds>
donor molecule, donor type, donor heavy atom, donor atom, acceptor molecule, acceptor atom, score
      P1  H  1105  4261       L1     4  1.00

> <Gold.PLP.Chemscore.Internal.Correction>
1.0962

