#       Name:                unknown
#       Creating user name   williammccorkindale
#       Creation time:       Tue Jun  7 14:55:41 2022


#       File generated by GOLD software.
#

@<TRIPOS>MOLECULE
unknown|prepared_Mpro-x0395|mol2|1|dock1
    29    30     1
SMALL
NO_CHARGES


@<TRIPOS>ATOM
      1 C1          -9.6876  19.8447  67.0294 C.3            1 RES1               0.0000
      2 C2         -10.1300  18.4889  67.5177 C.2            1 RES1               0.0000
      3 N3         -10.5765  17.4588  66.8068 N.2            1 RES1               0.0000
      4 N4         -10.9068  16.3876  67.3817 N.2            1 RES1               0.0000
      5 C5         -10.8118  16.2782  68.7026 C.2            1 RES1               0.0000
      6 C6         -11.1314  15.1437  69.6068 C.3            1 RES1               0.0000
      7 N7         -12.1430  15.4412  70.5590 N.3            1 RES1               0.0000
      8 C8         -11.5675  16.1968  71.6525 C.3            1 RES1               0.0000
      9 C9         -11.9945  15.6593  73.0130 C.3            1 RES1               0.0000
     10 C10        -13.4816  15.5649  72.9672 C.2            1 RES1               0.0000
     11 C11        -13.9812  14.8785  71.9307 C.2            1 RES1               0.0000
     12 F12        -15.2903  14.6903  71.7267 F              1 RES1               0.0000
     13 C13        -12.9222  14.3288  71.0005 C.3            1 RES1               0.0000
     14 S14        -10.2041  17.8408  69.0993 S.3            1 RES1               0.0000
     15 H15         -8.6726  19.8011  66.6346 H              1 RES1               0.0000
     16 H16         -9.7055  20.5095  67.9134 H              1 RES1               0.0000
     17 H17        -10.4560  20.1601  66.2904 H              1 RES1               0.0000
     18 H18        -10.2235  14.8198  70.1493 H              1 RES1               0.0000
     19 H19        -11.4324  14.2815  68.9703 H              1 RES1               0.0000
     20 H20        -10.4659  16.1824  71.5695 H              1 RES1               0.0000
     21 H21        -11.9876  17.2217  71.5910 H              1 RES1               0.0000
     22 H22        -11.5535  14.6623  73.2159 H              1 RES1               0.0000
     23 H23        -11.6341  16.3779  73.7679 H              1 RES1               0.0000
     24 H24        -14.1448  15.9980  73.6881 H              1 RES1               0.0000
     25 H25        -12.3769  13.5782  71.5821 H              1 RES1               0.0000
     26 H26        -13.4401  13.8335  70.1741 H              1 RES1               0.0000
     27 ****       -10.6506  17.5341  65.8124 LP             1 RES1               0.0000
     28 ****       -11.2421  15.6158  66.8413 LP             1 RES1               0.0000
     29 ****       -12.8212  16.0028  70.0851 LP             1 RES1               0.0000
@<TRIPOS>BOND
    1    1    2 1     
    2    2    3 2     
    3    3    4 1     
    4    4    5 2     
    5    5    6 1     
    6    6    7 1     
    7    7    8 1     
    8    8    9 1     
    9    9   10 1     
   10   10   11 2     
   11   11   12 1     
   12   11   13 1     
   13    5   14 1     
   14   14    2 1     
   15   13    7 1     
   16    1   15 1     
   17    1   16 1     
   18    1   17 1     
   19    6   18 1     
   20    6   19 1     
   21    8   20 1     
   22    8   21 1     
   23    9   22 1     
   24    9   23 1     
   25   10   24 1     
   26   13   25 1     
   27   13   26 1     
   28    3   27 1     
   29    4   28 1     
   30    7   29 1     
@<TRIPOS>SUBSTRUCTURE
      1 RES1           1
@<TRIPOS>SET
LONE_PAIRS      STATIC     ATOMS    <user>   **** ""
3 27 28 29
ATOM$BLUE        STATIC     ATOMS    COLORGROUP SYSTEM
3 27 28 29
@<TRIPOS>COMMENT
> <Gold.Version>
2022.1.0

> <Gold.Id.Protein>
6LU7|6LU7_protein|mol2

> <Gold.Protein.RotatedTorsions>
[ 3973 1471 1470 1467 ] final   12.12 input   60.00 | X-H torsion
[ 3372  414  413  411 ] final  -96.20 input   60.00 | X-H torsion
[ 4268 1114 1113 1110 ] final  175.69 input   59.99 | X-H torsion
[ 4409  924  923  921 ] final  -65.40 input   59.99 | X-H torsion
[ 4183 1244 1243 1241 ] final   82.46 input   59.99 | X-H torsion
[ 3800  178  177  174 ] final  -14.83 input   60.00 | X-H torsion
[ 3793  171  170  167 ] final  -51.40 input   60.00 | X-H torsion
[ 3576  185  184  181 ] final  -65.40 input   60.00 | X-H torsion
[ 3523  346  345  342 ] final -158.35 input   60.01 | X-H torsion
[ 3515  339  338  335 ] final   34.53 input   60.00 | X-H torsion
[ 3663  154  153  150 ] final  -21.75 input   60.00 | X-H torsion
[ 4280 1130 1129 1126 ] final  -45.54 input   60.00 | X-H torsion

> <Gold.Protein.ActiveResidues>
 VAL20   THR21   CYS22   GLY23   THR24   THR25   THR26   LEU27   ASN28   PRO39  
 ARG40   HIS41   VAL42   CYS44   THR45   SER46   ASP48   MET49   LEU50   PRO52  
 TYR54   TYR118  ASN119  ILE136  GLY138  SER139  PHE140  LEU141  ASN142  GLY143 
 SER144  CYS145  GLY146  SER147  TYR161  HIS163  HIS164  MET165  GLU166  LEU167 
 PRO168  THR169  GLY170  VAL171  HIS172  ALA173  PHE181  PHE185  VAL186  ASP187 
 ARG188  GLN189  THR190  ALA191  GLN192  ALA193 

> <Gold.Protein.RotatedAtoms>
  -15.4920   17.6487   75.1686 H   0  0  0  0  0  0  0  0  0  0  0  0  # atno 3372 bound_to 414 
   -3.6649   21.3393   74.1703 H   0  0  0  0  0  0  0  0  0  0  0  0  # atno 3515 bound_to 339 
   -2.0351   17.0040   72.6983 H   0  0  0  0  0  0  0  0  0  0  0  0  # atno 3523 bound_to 346 
   -8.2535   25.0562   63.4097 H   0  0  0  0  0  0  0  0  0  0  0  0  # atno 3576 bound_to 185 
   -8.1895   28.3728   65.4606 H   0  0  0  0  0  0  0  0  0  0  0  0  # atno 3663 bound_to 154 
   -2.9588   24.9853   72.6279 H   0  0  0  0  0  0  0  0  0  0  0  0  # atno 3793 bound_to 171 
   -6.0989   23.0763   71.4118 H   0  0  0  0  0  0  0  0  0  0  0  0  # atno 3800 bound_to 178 
  -15.1105    7.9819   76.8007 H   0  0  0  0  0  0  0  0  0  0  0  0  # atno 3973 bound_to 1471
  -20.7609   12.4461   63.2297 H   0  0  0  0  0  0  0  0  0  0  0  0  # atno 4183 bound_to 1244
  -13.4686   15.1672   60.7692 H   0  0  0  0  0  0  0  0  0  0  0  0  # atno 4268 bound_to 1114
  -16.3629   20.2626   58.4262 H   0  0  0  0  0  0  0  0  0  0  0  0  # atno 4280 bound_to 1130
  -12.1811   15.4336   57.2421 H   0  0  0  0  0  0  0  0  0  0  0  0  # atno 4409 bound_to 924 
  -15.2046    9.0864   77.9920 LP  0  0  0  0  0  0  0  0  0  0  0  0  # atno 4696 bound_to 1471
  -15.7209    7.5586   78.2485 LP  0  0  0  0  0  0  0  0  0  0  0  0  # atno 4697 bound_to 1471
  -14.5892   17.0357   76.3757 LP  0  0  0  0  0  0  0  0  0  0  0  0  # atno 4731 bound_to 414 
  -14.0092   18.2542   75.4562 LP  0  0  0  0  0  0  0  0  0  0  0  0  # atno 4732 bound_to 414 
  -14.0033   16.3274   61.7772 LP  0  0  0  0  0  0  0  0  0  0  0  0  # atno 4733 bound_to 1114
  -12.4413   15.8538   61.8281 LP  0  0  0  0  0  0  0  0  0  0  0  0  # atno 4734 bound_to 1114
  -10.7720   15.0205   57.9434 LP  0  0  0  0  0  0  0  0  0  0  0  0  # atno 4763 bound_to 924 
  -10.9052   15.0308   56.3159 LP  0  0  0  0  0  0  0  0  0  0  0  0  # atno 4764 bound_to 924 
  -20.7525   13.2343   64.6533 LP  0  0  0  0  0  0  0  0  0  0  0  0  # atno 4771 bound_to 1244
  -19.8510   13.7835   63.4073 LP  0  0  0  0  0  0  0  0  0  0  0  0  # atno 4772 bound_to 1244
   -7.4828   22.4302   71.9735 LP  0  0  0  0  0  0  0  0  0  0  0  0  # atno 4775 bound_to 178 
   -7.0394   23.9358   72.4241 LP  0  0  0  0  0  0  0  0  0  0  0  0  # atno 4776 bound_to 178 
   -1.7564   23.9225   72.3582 LP  0  0  0  0  0  0  0  0  0  0  0  0  # atno 4779 bound_to 171 
   -3.2442   23.6501   71.7426 LP  0  0  0  0  0  0  0  0  0  0  0  0  # atno 4780 bound_to 171 
   -7.1604   26.2396   63.1807 LP  0  0  0  0  0  0  0  0  0  0  0  0  # atno 4783 bound_to 185 
   -8.5355   26.5432   64.0075 LP  0  0  0  0  0  0  0  0  0  0  0  0  # atno 4784 bound_to 185 
   -2.5147   18.4794   73.1893 LP  0  0  0  0  0  0  0  0  0  0  0  0  # atno 4785 bound_to 346 
   -3.6189   17.3778   72.7055 LP  0  0  0  0  0  0  0  0  0  0  0  0  # atno 4786 bound_to 346 
   -2.9763   20.5787   75.4333 LP  0  0  0  0  0  0  0  0  0  0  0  0  # atno 4787 bound_to 339 
   -2.8235   22.1961   75.2685 LP  0  0  0  0  0  0  0  0  0  0  0  0  # atno 4788 bound_to 339 
   -6.7042   29.0148   65.2874 LP  0  0  0  0  0  0  0  0  0  0  0  0  # atno 4797 bound_to 154 
   -8.0285   29.9161   64.9704 LP  0  0  0  0  0  0  0  0  0  0  0  0  # atno 4798 bound_to 154 

> <Gold.Score>
     Score     S(PLP)   S(hbond)     S(cho)   S(metal)  DE(clash)   DE(tors)     intcor
     41.68     -42.18       0.00       0.00       0.00       0.00       0.26       0.02

> <Gold.PLP.Fitness>
41.6757

> <Gold.PLP.PLP>
-42.1756

> <Gold.PLP.part.hbond>
0.0000

> <Gold.PLP.part.metal>
0.0000

> <Gold.PLP.part.buried>
-6.2115

> <Gold.PLP.part.nonpolar>
-37.0356

> <Gold.PLP.part.repulsive>
0.2831

> <Gold.PLP.ligand.clash>
0.0000

> <Gold.PLP.ligand.torsion>
0.2603

> <Gold.PLP.Chemscore.Hbond>
0.0000

> <Gold.PLP.Chemscore.CHOScore>
0.0000

> <Gold.PLP.Chemscore.Metal>
0.0000

> <Gold.PLP.Chemscore.Internal.Correction>
0.0207

