#       Name:                unknown
#       Creating user name   williammccorkindale
#       Creation time:       Tue Jun  7 14:55:37 2022


#       File generated by GOLD software.
#

@<TRIPOS>MOLECULE
unknown|prepared_Mpro-x0161|mol2|1|dock5
    26    26     1
SMALL
NO_CHARGES


@<TRIPOS>ATOM
      1 C1         -12.5868  15.9175  73.5713 C.3            1 RES1               0.0000
      2 O2         -12.1414  16.0051  72.2430 O.3            1 RES1               0.0000
      3 C3         -12.4187  14.9731  71.3669 C.2            1 RES1               0.0000
      4 O4         -13.0741  13.9993  71.8081 O.2            1 RES1               0.0000
      5 C5         -11.9582  15.0233  69.9704 C.ar           1 RES1               0.0000
      6 C6         -12.0227  13.9225  69.1503 C.ar           1 RES1               0.0000
      7 C7         -11.5854  13.9678  67.8218 C.ar           1 RES1               0.0000
      8 C8         -11.0745  15.1420  67.3110 C.ar           1 RES1               0.0000
      9 C9         -11.0247  16.2260  68.1614 C.ar           1 RES1               0.0000
     10 C10        -11.4493  16.1935  69.4619 C.ar           1 RES1               0.0000
     11 S11        -10.5199  15.2355  65.6593 S.o2           1 RES1               0.0000
     12 O12        -11.7331  15.3680  64.7860 O.2            1 RES1               0.0000
     13 O13         -9.6046  16.4321  65.5028 O.2            1 RES1               0.0000
     14 N14         -9.6220  13.8510  65.1869 N.3            1 RES1               0.0000
     15 H15        -12.1244  16.6796  74.2307 H              1 RES1               0.0000
     16 H16        -12.4419  14.9266  74.0283 H              1 RES1               0.0000
     17 H17        -13.6967  16.0849  73.5463 H              1 RES1               0.0000
     18 H18        -12.4226  12.9982  69.5453 H              1 RES1               0.0000
     19 H19        -11.6291  13.1173  67.1692 H              1 RES1               0.0000
     20 H20        -10.6261  17.1558  67.7753 H              1 RES1               0.0000
     21 H21        -11.4058  17.0572  70.1275 H              1 RES1               0.0000
     22 H22         -8.6059  14.0185  65.3385 H              1 RES1               0.0000
     23 H23         -9.9006  12.9866  65.6771 H              1 RES1               0.0000
     24 ****       -13.3752  13.9900  72.7616 LP             1 RES1               0.0000
     25 ****       -13.2957  13.2320  71.2063 LP             1 RES1               0.0000
     26 ****        -9.8201  13.7103  64.2169 LP             1 RES1               0.0000
@<TRIPOS>BOND
    1    1    2 1     
    2    2    3 1     
    3    3    4 2     
    4    3    5 1     
    5    5    6 ar    
    6    6    7 ar    
    7    7    8 ar    
    8    8    9 ar    
    9    9   10 ar    
   10    8   11 1     
   11   11   12 2     
   12   11   13 2     
   13   11   14 1     
   14    5   10 ar    
   15    1   15 1     
   16    1   16 1     
   17    1   17 1     
   18    6   18 1     
   19    7   19 1     
   20    9   20 1     
   21   10   21 1     
   22   14   22 1     
   23   14   23 1     
   24    4   24 1     
   25    4   25 1     
   26   14   26 1     
@<TRIPOS>SUBSTRUCTURE
      1 RES1           1
@<TRIPOS>SET
LONE_PAIRS      STATIC     ATOMS    <user>   **** ""
5 24 25 12 13 26
DONOR_HYDROGENS      STATIC     ATOMS    <user>   **** ""
2 22 23
ATOM$BLUE        STATIC     ATOMS    COLORGROUP SYSTEM
5 24 25 12 13 26
ATOM$RED        STATIC     ATOMS    COLORGROUP SYSTEM
2 22 23
@<TRIPOS>COMMENT
> <Gold.Version>
2022.1.0

> <Gold.Id.Protein>
6LU7|6LU7_protein|mol2

> <Gold.Protein.RotatedTorsions>
[ 3973 1471 1470 1467 ] final  -85.92 input   60.00 | X-H torsion
[ 3372  414  413  411 ] final    9.49 input   60.00 | X-H torsion
[ 4268 1114 1113 1110 ] final  -52.52 input   59.99 | X-H torsion
[ 4409  924  923  921 ] final  168.22 input   59.99 | X-H torsion
[ 4183 1244 1243 1241 ] final   81.85 input   59.99 | X-H torsion
[ 3800  178  177  174 ] final  -22.21 input   60.00 | X-H torsion
[ 3793  171  170  167 ] final   19.09 input   60.00 | X-H torsion
[ 3576  185  184  181 ] final    4.06 input   60.00 | X-H torsion
[ 3523  346  345  342 ] final  -15.07 input   60.01 | X-H torsion
[ 3515  339  338  335 ] final   89.75 input   60.00 | X-H torsion
[ 3663  154  153  150 ] final  -72.74 input   60.00 | X-H torsion
[ 4280 1130 1129 1126 ] final  -40.70 input   60.00 | X-H torsion

> <Gold.Protein.ActiveResidues>
 VAL20   THR21   CYS22   GLY23   THR24   THR25   THR26   LEU27   ASN28   PRO39  
 ARG40   HIS41   VAL42   CYS44   THR45   SER46   ASP48   MET49   LEU50   PRO52  
 TYR54   TYR118  ASN119  ILE136  GLY138  SER139  PHE140  LEU141  ASN142  GLY143 
 SER144  CYS145  GLY146  SER147  TYR161  HIS163  HIS164  MET165  GLU166  LEU167 
 PRO168  THR169  GLY170  VAL171  HIS172  ALA173  PHE181  PHE185  VAL186  ASP187 
 ARG188  GLN189  THR190  ALA191  GLN192  ALA193 

> <Gold.Protein.RotatedAtoms>
  -14.1647   18.3194   75.2939 H   0  0  0  0  0  0  0  0  0  0  0  0  # atno 3372 bound_to 414 
   -3.3749   22.1148   74.4304 H   0  0  0  0  0  0  0  0  0  0  0  0  # atno 3515 bound_to 339 
   -3.6500   17.7334   72.8336 H   0  0  0  0  0  0  0  0  0  0  0  0  # atno 3523 bound_to 346 
   -8.8161   25.7953   63.9340 H   0  0  0  0  0  0  0  0  0  0  0  0  # atno 3576 bound_to 185 
   -7.3966   28.2407   65.5206 H   0  0  0  0  0  0  0  0  0  0  0  0  # atno 3663 bound_to 154 
   -3.5594   24.3075   72.0386 H   0  0  0  0  0  0  0  0  0  0  0  0  # atno 3793 bound_to 171 
   -6.1379   22.9661   71.3829 H   0  0  0  0  0  0  0  0  0  0  0  0  # atno 3800 bound_to 178 
  -15.0828    9.1069   77.6560 H   0  0  0  0  0  0  0  0  0  0  0  0  # atno 3973 bound_to 1471
  -20.7664   12.4428   63.2372 H   0  0  0  0  0  0  0  0  0  0  0  0  # atno 4183 bound_to 1244
  -12.5274   15.9900   61.9346 H   0  0  0  0  0  0  0  0  0  0  0  0  # atno 4268 bound_to 1114
  -16.3412   20.3017   58.4913 H   0  0  0  0  0  0  0  0  0  0  0  0  # atno 4280 bound_to 1130
  -10.6966   14.9988   57.8741 H   0  0  0  0  0  0  0  0  0  0  0  0  # atno 4409 bound_to 924 
  -15.7139    7.8444   78.4658 LP  0  0  0  0  0  0  0  0  0  0  0  0  # atno 4696 bound_to 1471
  -15.2394    7.6676   76.9133 LP  0  0  0  0  0  0  0  0  0  0  0  0  # atno 4697 bound_to 1471
  -15.5547   17.4733   75.3103 LP  0  0  0  0  0  0  0  0  0  0  0  0  # atno 4731 bound_to 414 
  -14.3804   17.1412   76.3955 LP  0  0  0  0  0  0  0  0  0  0  0  0  # atno 4732 bound_to 414 
  -13.2826   15.1184   60.7866 LP  0  0  0  0  0  0  0  0  0  0  0  0  # atno 4733 bound_to 1114
  -14.1100   16.2341   61.6451 LP  0  0  0  0  0  0  0  0  0  0  0  0  # atno 4734 bound_to 1114
  -10.9983   15.0581   56.2762 LP  0  0  0  0  0  0  0  0  0  0  0  0  # atno 4763 bound_to 924 
  -12.1740   15.4310   57.3465 LP  0  0  0  0  0  0  0  0  0  0  0  0  # atno 4764 bound_to 924 
  -20.7469   13.2425   64.6543 LP  0  0  0  0  0  0  0  0  0  0  0  0  # atno 4771 bound_to 1244
  -19.8511   13.7786   63.3986 LP  0  0  0  0  0  0  0  0  0  0  0  0  # atno 4772 bound_to 1244
   -7.5479   22.4999   72.0483 LP  0  0  0  0  0  0  0  0  0  0  0  0  # atno 4775 bound_to 178 
   -6.9349   23.9771   72.3783 LP  0  0  0  0  0  0  0  0  0  0  0  0  # atno 4776 bound_to 178 
   -2.2004   24.8281   72.7668 LP  0  0  0  0  0  0  0  0  0  0  0  0  # atno 4779 bound_to 171 
   -2.1953   23.4272   71.9276 LP  0  0  0  0  0  0  0  0  0  0  0  0  # atno 4780 bound_to 171 
   -7.5442   25.2410   63.0838 LP  0  0  0  0  0  0  0  0  0  0  0  0  # atno 4783 bound_to 185 
   -7.5850   26.7974   63.5763 LP  0  0  0  0  0  0  0  0  0  0  0  0  # atno 4784 bound_to 185 
   -2.3384   16.7994   72.5982 LP  0  0  0  0  0  0  0  0  0  0  0  0  # atno 4785 bound_to 346 
   -2.1690   18.3232   73.1603 LP  0  0  0  0  0  0  0  0  0  0  0  0  # atno 4786 bound_to 346 
   -3.4530   20.5126   74.7038 LP  0  0  0  0  0  0  0  0  0  0  0  0  # atno 4787 bound_to 339 
   -2.6388   21.4812   75.7360 LP  0  0  0  0  0  0  0  0  0  0  0  0  # atno 4788 bound_to 339 
   -6.9779   29.7412   65.0499 LP  0  0  0  0  0  0  0  0  0  0  0  0  # atno 4797 bound_to 154 
   -8.5534   29.3227   65.1475 LP  0  0  0  0  0  0  0  0  0  0  0  0  # atno 4798 bound_to 154 

> <Gold.Score>
     Score     S(PLP)   S(hbond)     S(cho)   S(metal)  DE(clash)   DE(tors)     intcor
     35.84     -31.47       1.51       0.00       0.00       0.00       1.19       2.23

> <Gold.PLP.Fitness>
35.8355

> <Gold.PLP.PLP>
-31.4742

> <Gold.PLP.part.hbond>
-2.0000

> <Gold.PLP.part.metal>
0.0000

> <Gold.PLP.part.buried>
-7.3311

> <Gold.PLP.part.nonpolar>
-23.3743

> <Gold.PLP.part.repulsive>
0.3683

> <Gold.PLP.ligand.clash>
0.0000

> <Gold.PLP.ligand.torsion>
1.1932

> <Gold.PLP.Chemscore.Hbond>
1.5075

> <Gold.PLP.Chemscore.CHOScore>
0.0000

> <Gold.PLP.Chemscore.Metal>
0.0000

> <Gold.Chemscore.Hbonds>
donor molecule, donor type, donor heavy atom, donor atom, acceptor molecule, acceptor atom, score
      L1  H    14    22       P1  1103  0.51
      P1  H  1105  4261       L1    13  1.00

> <Gold.PLP.Chemscore.Internal.Correction>
2.2252

