#       Name:                unknown
#       Creating user name   williammccorkindale
#       Creation time:       Tue Jun  7 14:55:36 2022


#       File generated by GOLD software.
#

@<TRIPOS>MOLECULE
unknown|prepared_Mpro-x0195|mol2|1|dock2
    30    31     1
SMALL
NO_CHARGES


@<TRIPOS>ATOM
      1 C1         -14.2119  12.9257  72.4000 C.3            1 RES1               0.0000
      2 N2         -13.1978  13.9368  72.4228 N.pl3          1 RES1               0.0000
      3 C3         -12.8657  14.5637  73.7003 C.3            1 RES1               0.0000
      4 C4         -11.9244  15.7295  73.5079 C.3            1 RES1               0.0000
      5 C5         -12.2441  16.5062  72.2617 C.3            1 RES1               0.0000
      6 C6         -12.0287  15.6104  71.0970 C.ar           1 RES1               0.0000
      7 C7         -11.3895  15.9828  69.9554 C.ar           1 RES1               0.0000
      8 C8         -11.2499  15.0653  68.9361 C.ar           1 RES1               0.0000
      9 C9         -11.7431  13.7825  69.0495 C.ar           1 RES1               0.0000
     10 C10        -12.3879  13.4110  70.2041 C.ar           1 RES1               0.0000
     11 C11        -12.5286  14.3201  71.2195 C.ar           1 RES1               0.0000
     12 S12        -11.5779  12.6113  67.7770 S.o2           1 RES1               0.0000
     13 O13        -10.1395  12.2750  67.5686 O.2            1 RES1               0.0000
     14 O14        -12.2843  11.3278  68.1619 O.2            1 RES1               0.0000
     15 N15        -12.2736  13.2087  66.3169 N.3            1 RES1               0.0000
     16 H16        -15.0603  13.2773  73.0241 H              1 RES1               0.0000
     17 H17        -13.8480  11.9555  72.8400 H              1 RES1               0.0000
     18 H18        -14.6184  12.7254  71.3925 H              1 RES1               0.0000
     19 H19        -12.3853  13.8339  74.3821 H              1 RES1               0.0000
     20 H20        -13.7669  14.9522  74.2120 H              1 RES1               0.0000
     21 H21        -11.9632  16.3941  74.3772 H              1 RES1               0.0000
     22 H22        -10.8957  15.3359  73.4223 H              1 RES1               0.0000
     23 H23        -11.6054  17.4076  72.2342 H              1 RES1               0.0000
     24 H24        -13.3259  16.7544  72.2871 H              1 RES1               0.0000
     25 H25        -11.0129  16.9939  69.8933 H              1 RES1               0.0000
     26 H26        -10.7424  15.3708  68.0375 H              1 RES1               0.0000
     27 H27        -12.7995  12.4157  70.3536 H              1 RES1               0.0000
     28 H28        -11.6281  13.8089  65.7970 H              1 RES1               0.0000
     29 H29        -13.1072  13.7740  66.5895 H              1 RES1               0.0000
     30 ****       -12.5060  12.4372  65.7246 LP             1 RES1               0.0000
@<TRIPOS>BOND
    1    1    2 1     
    2    2    3 1     
    3    3    4 1     
    4    4    5 1     
    5    5    6 1     
    6    6    7 ar    
    7    7    8 ar    
    8    8    9 ar    
    9    9   10 ar    
   10   10   11 ar    
   11    9   12 1     
   12   12   13 2     
   13   12   14 2     
   14   12   15 1     
   15   11    2 1     
   16    6   11 ar    
   17    1   16 1     
   18    1   17 1     
   19    1   18 1     
   20    3   19 1     
   21    3   20 1     
   22    4   21 1     
   23    4   22 1     
   24    5   23 1     
   25    5   24 1     
   26    7   25 1     
   27    8   26 1     
   28   10   27 1     
   29   15   28 1     
   30   15   29 1     
   31   15   30 1     
@<TRIPOS>SUBSTRUCTURE
      1 RES1           1
@<TRIPOS>SET
LONE_PAIRS      STATIC     ATOMS    <user>   **** ""
3 13 14 30
DONOR_HYDROGENS      STATIC     ATOMS    <user>   **** ""
2 28 29
ATOM$BLUE        STATIC     ATOMS    COLORGROUP SYSTEM
3 13 14 30
ATOM$RED        STATIC     ATOMS    COLORGROUP SYSTEM
2 28 29
@<TRIPOS>COMMENT
> <Gold.Version>
2022.1.0

> <Gold.Id.Protein>
6LU7|6LU7_protein|mol2

> <Gold.Protein.RotatedTorsions>
[ 3973 1471 1470 1467 ] final  171.78 input   60.00 | X-H torsion
[ 3372  414  413  411 ] final  -62.92 input   60.00 | X-H torsion
[ 4268 1114 1113 1110 ] final   42.21 input   59.99 | X-H torsion
[ 4409  924  923  921 ] final   19.66 input   59.99 | X-H torsion
[ 4183 1244 1243 1241 ] final -148.30 input   59.99 | X-H torsion
[ 3800  178  177  174 ] final   94.33 input   60.00 | X-H torsion
[ 3793  171  170  167 ] final   48.47 input   60.00 | X-H torsion
[ 3576  185  184  181 ] final -173.42 input   60.00 | X-H torsion
[ 3523  346  345  342 ] final   39.34 input   60.01 | X-H torsion
[ 3515  339  338  335 ] final   76.17 input   60.00 | X-H torsion
[ 3663  154  153  150 ] final -145.98 input   60.00 | X-H torsion
[ 4280 1130 1129 1126 ] final -107.46 input   60.00 | X-H torsion

> <Gold.Protein.ActiveResidues>
 VAL20   THR21   CYS22   GLY23   THR24   THR25   THR26   LEU27   ASN28   PRO39  
 ARG40   HIS41   VAL42   CYS44   THR45   SER46   ASP48   MET49   LEU50   PRO52  
 TYR54   TYR118  ASN119  ILE136  GLY138  SER139  PHE140  LEU141  ASN142  GLY143 
 SER144  CYS145  GLY146  SER147  TYR161  HIS163  HIS164  MET165  GLU166  LEU167 
 PRO168  THR169  GLY170  VAL171  HIS172  ALA173  PHE181  PHE185  VAL186  ASP187 
 ARG188  GLN189  THR190  ALA191  GLN192  ALA193 

> <Gold.Protein.RotatedAtoms>
  -15.1795   18.0319   74.9610 H   0  0  0  0  0  0  0  0  0  0  0  0  # atno 3372 bound_to 414 
   -3.4784   21.9637   74.3062 H   0  0  0  0  0  0  0  0  0  0  0  0  # atno 3515 bound_to 339 
   -3.1829   18.3957   73.1089 H   0  0  0  0  0  0  0  0  0  0  0  0  # atno 3523 bound_to 346 
   -7.1498   26.0529   63.1212 H   0  0  0  0  0  0  0  0  0  0  0  0  # atno 3576 bound_to 185 
   -6.7064   29.0818   65.2684 H   0  0  0  0  0  0  0  0  0  0  0  0  # atno 3663 bound_to 154 
   -3.4414   23.8982   71.8288 H   0  0  0  0  0  0  0  0  0  0  0  0  # atno 3793 bound_to 171 
   -6.8865   23.9868   72.3495 H   0  0  0  0  0  0  0  0  0  0  0  0  # atno 3800 bound_to 178 
  -15.6646    8.1156   78.5532 H   0  0  0  0  0  0  0  0  0  0  0  0  # atno 3973 bound_to 1471
  -19.8641   13.8453   63.5449 H   0  0  0  0  0  0  0  0  0  0  0  0  # atno 4183 bound_to 1244
  -13.8413   16.4028   61.9065 H   0  0  0  0  0  0  0  0  0  0  0  0  # atno 4268 bound_to 1114
  -16.3714   19.4201   57.9593 H   0  0  0  0  0  0  0  0  0  0  0  0  # atno 4280 bound_to 1130
  -11.4406   15.1928   56.2442 H   0  0  0  0  0  0  0  0  0  0  0  0  # atno 4409 bound_to 924 
  -15.3551    7.4704   77.0918 LP  0  0  0  0  0  0  0  0  0  0  0  0  # atno 4696 bound_to 1471
  -15.0122    9.0400   77.3837 LP  0  0  0  0  0  0  0  0  0  0  0  0  # atno 4697 bound_to 1471
  -15.0784   16.9434   76.1664 LP  0  0  0  0  0  0  0  0  0  0  0  0  # atno 4731 bound_to 414 
  -13.8347   17.9606   75.8746 LP  0  0  0  0  0  0  0  0  0  0  0  0  # atno 4732 bound_to 414 
  -12.3934   15.6949   61.6818 LP  0  0  0  0  0  0  0  0  0  0  0  0  # atno 4733 bound_to 1114
  -13.6759   15.2420   60.7781 LP  0  0  0  0  0  0  0  0  0  0  0  0  # atno 4734 bound_to 1114
  -11.9820   15.3810   57.7671 LP  0  0  0  0  0  0  0  0  0  0  0  0  # atno 4763 bound_to 924 
  -10.4410   14.9128   57.4972 LP  0  0  0  0  0  0  0  0  0  0  0  0  # atno 4764 bound_to 924 
  -20.6737   12.4999   63.1181 LP  0  0  0  0  0  0  0  0  0  0  0  0  # atno 4771 bound_to 1244
  -20.8330   13.1087   64.6250 LP  0  0  0  0  0  0  0  0  0  0  0  0  # atno 4772 bound_to 1244
   -6.1544   22.9128   71.3704 LP  0  0  0  0  0  0  0  0  0  0  0  0  # atno 4775 bound_to 178 
   -7.5747   22.5364   72.0829 LP  0  0  0  0  0  0  0  0  0  0  0  0  # atno 4776 bound_to 178 
   -2.6472   24.9950   72.7312 LP  0  0  0  0  0  0  0  0  0  0  0  0  # atno 4779 bound_to 171 
   -1.8673   23.6726   72.1745 LP  0  0  0  0  0  0  0  0  0  0  0  0  # atno 4780 bound_to 171 
   -8.3921   26.6726   63.9700 LP  0  0  0  0  0  0  0  0  0  0  0  0  # atno 4783 bound_to 185 
   -8.4154   25.1063   63.5087 LP  0  0  0  0  0  0  0  0  0  0  0  0  # atno 4784 bound_to 185 
   -3.1967   16.8659   72.5545 LP  0  0  0  0  0  0  0  0  0  0  0  0  # atno 4785 bound_to 346 
   -1.7810   17.5898   72.9268 LP  0  0  0  0  0  0  0  0  0  0  0  0  # atno 4786 bound_to 346 
   -3.3450   20.4500   74.8885 LP  0  0  0  0  0  0  0  0  0  0  0  0  # atno 4787 bound_to 339 
   -2.6426   21.6959   75.6764 LP  0  0  0  0  0  0  0  0  0  0  0  0  # atno 4788 bound_to 339 
   -8.0909   29.8863   64.9785 LP  0  0  0  0  0  0  0  0  0  0  0  0  # atno 4797 bound_to 154 
   -8.1354   28.3306   65.4729 LP  0  0  0  0  0  0  0  0  0  0  0  0  # atno 4798 bound_to 154 

> <Gold.Score>
     Score     S(PLP)   S(hbond)     S(cho)   S(metal)  DE(clash)   DE(tors)     intcor
     43.25     -40.35       1.00       0.00       0.00       0.00       1.15       2.19

> <Gold.PLP.Fitness>
43.2479

> <Gold.PLP.PLP>
-40.3523

> <Gold.PLP.part.hbond>
-1.0000

> <Gold.PLP.part.metal>
0.0000

> <Gold.PLP.part.buried>
-6.0761

> <Gold.PLP.part.nonpolar>
-34.1241

> <Gold.PLP.part.repulsive>
0.1422

> <Gold.PLP.ligand.clash>
0.0000

> <Gold.PLP.ligand.torsion>
1.1483

> <Gold.PLP.Chemscore.Hbond>
1.0000

> <Gold.PLP.Chemscore.CHOScore>
0.0000

> <Gold.PLP.Chemscore.Metal>
0.0000

> <Gold.Chemscore.Hbonds>
donor molecule, donor type, donor heavy atom, donor atom, acceptor molecule, acceptor atom, score
      P1  H  1281  4132       L1    14  1.00

> <Gold.PLP.Chemscore.Internal.Correction>
2.1923

