unknown|prepared_Mpro-x1077|sdf|1|dock3
  -GOLD-   5 72214353D 1   1.00000     0.00000

 28 29  0  0  0  0  0  0  0  0  1 V2000
  -11.6896    6.0359   70.8780 N   0  0  0  0  0  0  0  0  0  0  0  0
  -11.8953    7.1726   70.9711 C   0  0  0  0  0  0  0  0  0  0  0  0
  -12.1373    8.6001   71.0765 C   0  0  0  0  0  0  0  0  0  0  0  0
  -13.2667    9.0530   71.7232 C   0  0  0  0  0  0  0  0  0  0  0  0
  -13.5012   10.4301   71.8254 C   0  0  0  0  0  0  0  0  0  0  0  0
  -12.5996   11.3129   71.2779 C   0  0  0  0  0  0  0  0  0  0  0  0
  -11.4858   10.8320   70.6412 C   0  0  0  0  0  0  0  0  0  0  0  0
  -11.2735    9.4864   70.5510 N   0  0  0  0  0  0  0  0  0  0  0  0
  -12.8071   12.7125   71.3688 N   0  0  0  0  0  0  0  0  0  0  0  0
  -13.7704   13.1166   72.3428 C   0  0  0  0  0  0  0  0  0  0  0  0
  -13.7991   14.5688   72.6713 C   0  0  0  0  0  0  0  0  0  0  0  0
  -12.4672   15.2600   72.6051 C   0  0  0  0  0  0  0  0  0  0  0  0
  -12.1858   15.7689   71.3486 O   0  0  0  0  0  0  0  0  0  0  0  0
  -12.5045   14.9263   70.3148 C   0  0  0  0  0  0  0  0  0  0  0  0
  -12.0347   13.5226   70.4793 C   0  0  0  0  0  0  0  0  0  0  0  0
  -13.9661    8.3321   72.1488 H   0  0  0  0  0  0  0  0  0  0  0  0
  -14.3901   10.7278   72.3342 H   0  0  0  0  0  0  0  0  0  0  0  0
  -10.7274   11.4399   70.1856 H   0  0  0  0  0  0  0  0  0  0  0  0
  -14.7880   12.8136   72.0245 H   0  0  0  0  0  0  0  0  0  0  0  0
  -13.5716   12.5754   73.3057 H   0  0  0  0  0  0  0  0  0  0  0  0
  -14.2300   14.7403   73.6859 H   0  0  0  0  0  0  0  0  0  0  0  0
  -14.4921   15.1242   71.9721 H   0  0  0  0  0  0  0  0  0  0  0  0
  -12.5171   16.1313   73.2932 H   0  0  0  0  0  0  0  0  0  0  0  0
  -11.6442   14.6180   73.0026 H   0  0  0  0  0  0  0  0  0  0  0  0
  -13.5919   14.9366   70.1599 H   0  0  0  0  0  0  0  0  0  0  0  0
  -11.9868   15.3335   69.3960 H   0  0  0  0  0  0  0  0  0  0  0  0
  -10.9729   13.4391   70.7816 H   0  0  0  0  0  0  0  0  0  0  0  0
  -12.0699   13.0767   69.4387 H   0  0  0  0  0  0  0  0  0  0  0  0
  1  2  3  0  0  0  0
  2  3  1  0  0  0  0
  3  4  2  0  0  0  0
  4  5  1  0  0  0  0
  5  6  2  0  0  0  0
  6  7  1  0  0  0  0
  7  8  2  0  0  0  0
  6  9  1  0  0  0  0
  9 10  1  0  0  0  0
 10 11  1  0  0  0  0
 11 12  1  0  0  0  0
 12 13  1  0  0  0  0
 13 14  1  0  0  0  0
 14 15  1  0  0  0  0
  3  8  1  0  0  0  0
 15  9  1  0  0  0  0
  4 16  1  0  0  0  0
  5 17  1  0  0  0  0
  7 18  1  0  0  0  0
 10 19  1  0  0  0  0
 10 20  1  0  0  0  0
 11 21  1  0  0  0  0
 11 22  1  0  0  0  0
 12 23  1  0  0  0  0
 12 24  1  0  0  0  0
 14 25  1  0  0  0  0
 14 26  1  0  0  0  0
 15 27  1  0  0  0  0
 15 28  1  0  0  0  0
M  END
> <Gold.Version>
2022.1.0

> <Gold.Id.Protein>
6LU7|6LU7_protein|mol2

> <Gold.PLP.Fitness>
44.3481

> <Gold.PLP.PLP>
-41.9478

> <Gold.PLP.part.hbond>
0.0000

> <Gold.PLP.part.metal>
0.0000

> <Gold.PLP.part.buried>
-5.5649

> <Gold.PLP.part.nonpolar>
-38.1860

> <Gold.PLP.part.repulsive>
0.3112

> <Gold.PLP.ligand.clash>
0.0337

> <Gold.PLP.ligand.torsion>
0.1196

> <Gold.PLP.Chemscore.Hbond>
0.0000

> <Gold.PLP.Chemscore.CHOScore>
0.8078

> <Gold.PLP.Chemscore.Metal>
0.0000

> <Gold.Chemscore.Hbonds>
donor molecule, donor type, donor heavy atom, donor atom, acceptor molecule, acceptor atom, score
      L1  C     7    18       P1  1464  0.81

> <Gold.PLP.Chemscore.Internal.Correction>
0.2499

> <Gold.Protein.RotatedTorsions>
[ 3973 1471 1470 1467 ] final  152.22 input   60.00 | X-H torsion
[ 3372  414  413  411 ] final  179.46 input   60.00 | X-H torsion
[ 4268 1114 1113 1110 ] final  -33.15 input   59.99 | X-H torsion
[ 4409  924  923  921 ] final   98.54 input   59.99 | X-H torsion
[ 4183 1244 1243 1241 ] final  -53.08 input   59.99 | X-H torsion
[ 3800  178  177  174 ] final  -49.89 input   60.00 | X-H torsion
[ 3793  171  170  167 ] final   48.11 input   60.00 | X-H torsion
[ 3576  185  184  181 ] final  122.86 input   60.00 | X-H torsion
[ 3523  346  345  342 ] final -140.05 input   60.01 | X-H torsion
[ 3515  339  338  335 ] final  -95.46 input   60.00 | X-H torsion
[ 3663  154  153  150 ] final  174.71 input   60.00 | X-H torsion
[ 4280 1130 1129 1126 ] final  -92.06 input   60.00 | X-H torsion

> <Gold.Protein.ActiveResidues>
 VAL20   THR21   CYS22   GLY23   THR24   THR25   THR26   LEU27   ASN28   PRO39  
 ARG40   HIS41   VAL42   CYS44   THR45   SER46   ASP48   MET49   LEU50   PRO52  
 TYR54   TYR118  ASN119  ILE136  GLY138  SER139  PHE140  LEU141  ASN142  GLY143 
 SER144  CYS145  GLY146  SER147  TYR161  HIS163  HIS164  MET165  GLU166  LEU167 
 PRO168  THR169  GLY170  VAL171  HIS172  ALA173  PHE181  PHE185  VAL186  ASP187 
 ARG188  GLN189  THR190  ALA191  GLN192  ALA193 

> <Gold.Protein.RotatedAtoms>
  -15.1085   16.9522   76.1421 H   0  0  0  0  0  0  0  0  0  0  0  0  # atno 3372 bound_to 414 
   -2.8984   20.6817   75.5338 H   0  0  0  0  0  0  0  0  0  0  0  0  # atno 3515 bound_to 339 
   -2.2686   16.8367   72.6197 H   0  0  0  0  0  0  0  0  0  0  0  0  # atno 3523 bound_to 346 
   -7.6022   26.7973   63.5882 H   0  0  0  0  0  0  0  0  0  0  0  0  # atno 3576 bound_to 185 
   -6.9020   29.6509   65.0827 H   0  0  0  0  0  0  0  0  0  0  0  0  # atno 3663 bound_to 154 
   -3.4442   23.9030   71.8309 H   0  0  0  0  0  0  0  0  0  0  0  0  # atno 3793 bound_to 171 
   -6.3853   22.5934   71.3581 H   0  0  0  0  0  0  0  0  0  0  0  0  # atno 3800 bound_to 178 
  -15.7119    7.8196   78.4467 H   0  0  0  0  0  0  0  0  0  0  0  0  # atno 3973 bound_to 1471
  -20.6016   13.4384   64.6417 H   0  0  0  0  0  0  0  0  0  0  0  0  # atno 4183 bound_to 1244
  -12.7287   16.1904   62.0707 H   0  0  0  0  0  0  0  0  0  0  0  0  # atno 4268 bound_to 1114
  -16.4176   19.6641   57.9956 H   0  0  0  0  0  0  0  0  0  0  0  0  # atno 4280 bound_to 1130
  -10.4505   14.9060   56.8373 H   0  0  0  0  0  0  0  0  0  0  0  0  # atno 4409 bound_to 924 
  -15.2276    7.6917   76.8985 LP  0  0  0  0  0  0  0  0  0  0  0  0  # atno 4696 bound_to 1471
  -15.0921    9.1167   77.6842 LP  0  0  0  0  0  0  0  0  0  0  0  0  # atno 4697 bound_to 1471
  -13.8330   17.9342   75.9035 LP  0  0  0  0  0  0  0  0  0  0  0  0  # atno 4731 bound_to 414 
  -15.1517   18.0571   74.9482 LP  0  0  0  0  0  0  0  0  0  0  0  0  # atno 4732 bound_to 414 
  -12.9798   15.1091   60.8809 LP  0  0  0  0  0  0  0  0  0  0  0  0  # atno 4733 bound_to 1114
  -14.2100   16.0416   61.4137 LP  0  0  0  0  0  0  0  0  0  0  0  0  # atno 4734 bound_to 1114
  -11.9896   15.3614   56.5695 LP  0  0  0  0  0  0  0  0  0  0  0  0  # atno 4763 bound_to 924 
  -11.4306   15.2212   58.0974 LP  0  0  0  0  0  0  0  0  0  0  0  0  # atno 4764 bound_to 924 
  -19.8745   13.6375   63.1996 LP  0  0  0  0  0  0  0  0  0  0  0  0  # atno 4771 bound_to 1244
  -20.8895   12.3809   63.4389 LP  0  0  0  0  0  0  0  0  0  0  0  0  # atno 4772 bound_to 1244
   -7.6860   22.8458   72.3030 LP  0  0  0  0  0  0  0  0  0  0  0  0  # atno 4775 bound_to 178 
   -6.5478   24.0065   72.1486 LP  0  0  0  0  0  0  0  0  0  0  0  0  # atno 4776 bound_to 178 
   -2.6413   24.9941   72.7324 LP  0  0  0  0  0  0  0  0  0  0  0  0  # atno 4779 bound_to 171 
   -1.8703   23.6686   72.1712 LP  0  0  0  0  0  0  0  0  0  0  0  0  # atno 4780 bound_to 171 
   -8.8225   25.7760   63.9288 LP  0  0  0  0  0  0  0  0  0  0  0  0  # atno 4783 bound_to 185 
   -7.5293   25.2533   63.0795 LP  0  0  0  0  0  0  0  0  0  0  0  0  # atno 4784 bound_to 185 
   -2.2372   18.3675   73.1709 LP  0  0  0  0  0  0  0  0  0  0  0  0  # atno 4785 bound_to 346 
   -3.6613   17.6581   72.8031 LP  0  0  0  0  0  0  0  0  0  0  0  0  # atno 4786 bound_to 346 
   -2.8976   22.2597   75.1366 LP  0  0  0  0  0  0  0  0  0  0  0  0  # atno 4787 bound_to 339 
   -3.6741   21.1774   74.1920 LP  0  0  0  0  0  0  0  0  0  0  0  0  # atno 4788 bound_to 339 
   -8.5144   29.4337   65.1130 LP  0  0  0  0  0  0  0  0  0  0  0  0  # atno 4797 bound_to 154 
   -7.5149   28.2100   65.5253 LP  0  0  0  0  0  0  0  0  0  0  0  0  # atno 4798 bound_to 154 

$$$$
