#       Name:                unknown
#       Creating user name   williammccorkindale
#       Creation time:       Tue Jun  7 14:55:43 2022


#       File generated by GOLD software.
#

@<TRIPOS>MOLECULE
unknown|prepared_Mpro-x0540|mol2|1|dock4
    42    43     1
SMALL
NO_CHARGES


@<TRIPOS>ATOM
      1 O1         -10.3053  15.1717  68.9052 O.2            1 RES1               0.0000
      2 C2         -11.1832  16.0292  69.1251 C.2            1 RES1               0.0000
      3 N3         -11.2893  17.1137  68.2081 N.am           1 RES1               0.0000
      4 C4         -10.4217  17.2128  67.0801 C.3            1 RES1               0.0000
      5 C5         -11.1098  17.0769  65.7536 C.3            1 RES1               0.0000
      6 C6         -11.2462  15.6020  65.4843 C.ar           1 RES1               0.0000
      7 C7         -10.1129  14.7962  65.4287 C.ar           1 RES1               0.0000
      8 C8         -10.2001  13.4414  65.1843 C.ar           1 RES1               0.0000
      9 N9         -11.4355  12.9391  65.0025 N.ar           1 RES1               0.0000
     10 C10        -12.5507  13.6530  65.0434 C.ar           1 RES1               0.0000
     11 C11        -12.4724  15.0087  65.2873 C.ar           1 RES1               0.0000
     12 N12        -12.0057  15.8688  70.2586 N.am           1 RES1               0.0000
     13 C13        -11.8593  14.7331  71.1768 C.3            1 RES1               0.0000
     14 C14        -11.6991  15.2914  72.5632 C.3            1 RES1               0.0000
     15 C15        -12.8838  16.1173  72.9926 C.3            1 RES1               0.0000
     16 C16        -14.1999  15.5236  72.6182 C.3            1 RES1               0.0000
     17 C17        -14.0042  14.0659  72.2991 C.3            1 RES1               0.0000
     18 C18        -13.0602  13.8418  71.1512 C.3            1 RES1               0.0000
     19 H19        -12.0327  17.8177  68.4157 H              1 RES1               0.0000
     20 H20         -9.6735  16.3960  67.1483 H              1 RES1               0.0000
     21 H21         -9.8248  18.1615  67.0718 H              1 RES1               0.0000
     22 H22        -12.1093  17.5501  65.7954 H              1 RES1               0.0000
     23 H23        -10.5081  17.4654  64.9055 H              1 RES1               0.0000
     24 H24         -9.1259  15.2332  65.5801 H              1 RES1               0.0000
     25 H25         -9.2993  12.8255  65.1444 H              1 RES1               0.0000
     26 H26        -13.5463  13.2340  64.8945 H              1 RES1               0.0000
     27 H27        -13.3590  15.6438  65.3317 H              1 RES1               0.0000
     28 H28        -12.7367  16.5779  70.4465 H              1 RES1               0.0000
     29 H29        -10.9346  14.1752  70.9341 H              1 RES1               0.0000
     30 H30        -10.8054  15.9318  72.6302 H              1 RES1               0.0000
     31 H31        -11.6317  14.4349  73.2729 H              1 RES1               0.0000
     32 H32        -12.7673  17.1844  72.6611 H              1 RES1               0.0000
     33 H33        -12.8326  16.1722  74.1167 H              1 RES1               0.0000
     34 H34        -14.9140  15.5722  73.4725 H              1 RES1               0.0000
     35 H35        -14.7100  16.0769  71.7856 H              1 RES1               0.0000
     36 H36        -13.6735  13.5627  73.2108 H              1 RES1               0.0000
     37 H37        -14.9957  13.6583  71.9881 H              1 RES1               0.0000
     38 H38        -13.5610  13.9014  70.1583 H              1 RES1               0.0000
     39 H39        -12.6830  12.7808  71.2275 H              1 RES1               0.0000
     40 ****        -9.7078  15.2609  68.1083 LP             1 RES1               0.0000
     41 ****       -10.1987  14.3948  69.5257 LP             1 RES1               0.0000
     42 ****       -11.5173  11.9585  64.8242 LP             1 RES1               0.0000
@<TRIPOS>BOND
    1    1    2 2     
    2    2    3 am    
    3    3    4 1     
    4    4    5 1     
    5    5    6 1     
    6    6    7 ar    
    7    7    8 ar    
    8    8    9 ar    
    9    9   10 ar    
   10   10   11 ar    
   11    2   12 am    
   12   12   13 1     
   13   13   14 1     
   14   14   15 1     
   15   15   16 1     
   16   16   17 1     
   17   17   18 1     
   18    6   11 ar    
   19   18   13 1     
   20    3   19 1     
   21    4   20 1     
   22    4   21 1     
   23    5   22 1     
   24    5   23 1     
   25    7   24 1     
   26    8   25 1     
   27   10   26 1     
   28   11   27 1     
   29   12   28 1     
   30   13   29 1     
   31   14   30 1     
   32   14   31 1     
   33   15   32 1     
   34   15   33 1     
   35   16   34 1     
   36   16   35 1     
   37   17   36 1     
   38   17   37 1     
   39   18   38 1     
   40   18   39 1     
   41    1   40 1     
   42    1   41 1     
   43    9   42 1     
@<TRIPOS>SUBSTRUCTURE
      1 RES1           1
@<TRIPOS>SET
LONE_PAIRS      STATIC     ATOMS    <user>   **** ""
3 40 41 42
DONOR_HYDROGENS      STATIC     ATOMS    <user>   **** ""
2 19 28
ATOM$BLUE        STATIC     ATOMS    COLORGROUP SYSTEM
3 40 41 42
ATOM$RED        STATIC     ATOMS    COLORGROUP SYSTEM
2 19 28
@<TRIPOS>COMMENT
> <Gold.Version>
2022.1.0

> <Gold.Id.Protein>
6LU7|6LU7_protein|mol2

> <Gold.Protein.RotatedTorsions>
[ 3973 1471 1470 1467 ] final   45.48 input   60.00 | X-H torsion
[ 3372  414  413  411 ] final  -99.78 input   60.00 | X-H torsion
[ 4268 1114 1113 1110 ] final -103.56 input   59.99 | X-H torsion
[ 4409  924  923  921 ] final -179.83 input   59.99 | X-H torsion
[ 4183 1244 1243 1241 ] final  -26.16 input   59.99 | X-H torsion
[ 3800  178  177  174 ] final   46.48 input   60.00 | X-H torsion
[ 3793  171  170  167 ] final  167.05 input   60.00 | X-H torsion
[ 3576  185  184  181 ] final  130.71 input   60.00 | X-H torsion
[ 3523  346  345  342 ] final  -26.48 input   60.01 | X-H torsion
[ 3515  339  338  335 ] final   51.34 input   60.00 | X-H torsion
[ 3663  154  153  150 ] final  -53.07 input   60.00 | X-H torsion
[ 4280 1130 1129 1126 ] final   20.53 input   60.00 | X-H torsion

> <Gold.Protein.ActiveResidues>
 VAL20   THR21   CYS22   GLY23   THR24   THR25   THR26   LEU27   ASN28   PRO39  
 ARG40   HIS41   VAL42   CYS44   THR45   SER46   ASP48   MET49   LEU50   PRO52  
 TYR54   TYR118  ASN119  ILE136  GLY138  SER139  PHE140  LEU141  ASN142  GLY143 
 SER144  CYS145  GLY146  SER147  TYR161  HIS163  HIS164  MET165  GLU166  LEU167 
 PRO168  THR169  GLY170  VAL171  HIS172  ALA173  PHE181  PHE185  VAL186  ASP187 
 ARG188  GLN189  THR190  ALA191  GLN192  ALA193 

> <Gold.Protein.RotatedAtoms>
  -15.5112   17.6051   75.2025 H   0  0  0  0  0  0  0  0  0  0  0  0  # atno 3372 bound_to 414 
   -3.6179   21.6089   74.1766 H   0  0  0  0  0  0  0  0  0  0  0  0  # atno 3515 bound_to 339 
   -3.6508   17.5582   72.7705 H   0  0  0  0  0  0  0  0  0  0  0  0  # atno 3523 bound_to 346 
   -7.5045   26.7483   63.5212 H   0  0  0  0  0  0  0  0  0  0  0  0  # atno 3576 bound_to 185 
   -7.7150   28.2101   65.5231 H   0  0  0  0  0  0  0  0  0  0  0  0  # atno 3663 bound_to 154 
   -1.8840   23.6619   72.1603 H   0  0  0  0  0  0  0  0  0  0  0  0  # atno 3793 bound_to 171 
   -6.2782   23.8708   71.9100 H   0  0  0  0  0  0  0  0  0  0  0  0  # atno 3800 bound_to 178 
  -15.3116    7.5375   77.0262 H   0  0  0  0  0  0  0  0  0  0  0  0  # atno 3973 bound_to 1471
  -20.8493   13.0814   64.6084 H   0  0  0  0  0  0  0  0  0  0  0  0  # atno 4183 bound_to 1244
  -12.4470   15.4157   61.3741 H   0  0  0  0  0  0  0  0  0  0  0  0  # atno 4268 bound_to 1114
  -15.9123   20.2622   59.3420 H   0  0  0  0  0  0  0  0  0  0  0  0  # atno 4280 bound_to 1130
  -10.8489   15.0467   57.9859 H   0  0  0  0  0  0  0  0  0  0  0  0  # atno 4409 bound_to 924 
  -15.0341    9.0759   77.4784 LP  0  0  0  0  0  0  0  0  0  0  0  0  # atno 4696 bound_to 1471
  -15.6888    8.0167   78.5349 LP  0  0  0  0  0  0  0  0  0  0  0  0  # atno 4697 bound_to 1471
  -14.5358   17.0587   76.3849 LP  0  0  0  0  0  0  0  0  0  0  0  0  # atno 4731 bound_to 414 
  -14.0432   18.2750   75.4130 LP  0  0  0  0  0  0  0  0  0  0  0  0  # atno 4732 bound_to 414 
  -14.0035   15.4739   60.9032 LP  0  0  0  0  0  0  0  0  0  0  0  0  # atno 4733 bound_to 1114
  -13.4700   16.4571   62.0929 LP  0  0  0  0  0  0  0  0  0  0  0  0  # atno 4734 bound_to 1114
  -10.8276   15.0083   56.3592 LP  0  0  0  0  0  0  0  0  0  0  0  0  # atno 4763 bound_to 924 
  -12.1913   15.4326   57.1510 LP  0  0  0  0  0  0  0  0  0  0  0  0  # atno 4764 bound_to 924 
  -19.8619   13.8616   63.5768 LP  0  0  0  0  0  0  0  0  0  0  0  0  # atno 4771 bound_to 1244
  -20.6525   12.5163   63.0952 LP  0  0  0  0  0  0  0  0  0  0  0  0  # atno 4772 bound_to 1244
   -6.6852   22.3669   71.4402 LP  0  0  0  0  0  0  0  0  0  0  0  0  # atno 4775 bound_to 178 
   -7.6563   23.1990   72.4556 LP  0  0  0  0  0  0  0  0  0  0  0  0  # atno 4776 bound_to 178 
   -3.4585   23.9140   71.8359 LP  0  0  0  0  0  0  0  0  0  0  0  0  # atno 4779 bound_to 171 
   -2.6246   24.9915   72.7360 LP  0  0  0  0  0  0  0  0  0  0  0  0  # atno 4780 bound_to 171 
   -8.8202   25.8999   63.9651 LP  0  0  0  0  0  0  0  0  0  0  0  0  # atno 4783 bound_to 185 
   -7.6300   25.1787   63.1108 LP  0  0  0  0  0  0  0  0  0  0  0  0  # atno 4784 bound_to 185 
   -2.1760   16.8828   72.6411 LP  0  0  0  0  0  0  0  0  0  0  0  0  # atno 4785 bound_to 346 
   -2.3305   18.4162   73.1810 LP  0  0  0  0  0  0  0  0  0  0  0  0  # atno 4786 bound_to 346 
   -3.1247   20.4694   75.2283 LP  0  0  0  0  0  0  0  0  0  0  0  0  # atno 4787 bound_to 339 
   -2.7224   22.0339   75.4671 LP  0  0  0  0  0  0  0  0  0  0  0  0  # atno 4788 bound_to 339 
   -6.7915   29.4920   65.1334 LP  0  0  0  0  0  0  0  0  0  0  0  0  # atno 4797 bound_to 154 
   -8.4191   29.6027   65.0614 LP  0  0  0  0  0  0  0  0  0  0  0  0  # atno 4798 bound_to 154 

> <Gold.Score>
     Score     S(PLP)   S(hbond)     S(cho)   S(metal)  DE(clash)   DE(tors)     intcor
     54.20     -45.89       0.98       1.90       0.00       0.00       0.18       0.04

> <Gold.PLP.Fitness>
54.1996

> <Gold.PLP.PLP>
-45.8894

> <Gold.PLP.part.hbond>
-0.9017

> <Gold.PLP.part.metal>
0.0000

> <Gold.PLP.part.buried>
-8.5500

> <Gold.PLP.part.nonpolar>
-38.1002

> <Gold.PLP.part.repulsive>
0.2229

> <Gold.PLP.ligand.clash>
0.0000

> <Gold.PLP.ligand.torsion>
0.1760

> <Gold.PLP.Chemscore.Hbond>
0.9750

> <Gold.PLP.Chemscore.CHOScore>
1.9005

> <Gold.PLP.Chemscore.Metal>
0.0000

> <Gold.Chemscore.Hbonds>
donor molecule, donor type, donor heavy atom, donor atom, acceptor molecule, acceptor atom, score
      L1  H     3    19       P1   312  0.98
      L1  C     8    25       P1  1103  0.90
      L1  C    10    26       P1  1262  1.00

> <Gold.PLP.Chemscore.Internal.Correction>
0.0357

