#       Name:                unknown
#       Creating user name   williammccorkindale
#       Creation time:       Tue Jun  7 14:55:35 2022


#       File generated by GOLD software.
#

@<TRIPOS>MOLECULE
unknown|prepared_Mpro-x0426|mol2|1|dock5
    34    35     1
SMALL
NO_CHARGES


@<TRIPOS>ATOM
      1 F1          -9.5198  10.9804  66.0777 F              1 RES1               0.0000
      2 C2         -10.5528  11.4614  65.3651 C.ar           1 RES1               0.0000
      3 C3         -10.4586  11.2329  63.9829 C.ar           1 RES1               0.0000
      4 C4         -11.4237  11.6546  63.0989 C.ar           1 RES1               0.0000
      5 C5         -12.5028  12.3200  63.6302 C.ar           1 RES1               0.0000
      6 C6         -12.5962  12.5444  64.9838 C.ar           1 RES1               0.0000
      7 C7         -11.6117  12.1139  65.8827 C.ar           1 RES1               0.0000
      8 C8         -11.7662  12.3801  67.3002 C.2            1 RES1               0.0000
      9 O9         -12.1788  11.4386  68.0763 O.2            1 RES1               0.0000
     10 N10        -11.5093  13.5937  67.9604 N.am           1 RES1               0.0000
     11 C11        -11.7093  13.7276  69.4115 C.3            1 RES1               0.0000
     12 C12        -11.6498  15.1338  69.8829 C.3            1 RES1               0.0000
     13 C13        -12.2885  15.4122  71.1703 C.ar           1 RES1               0.0000
     14 C14        -13.5454  14.9657  71.4383 C.ar           1 RES1               0.0000
     15 C15        -14.1767  15.2072  72.6602 C.ar           1 RES1               0.0000
     16 N16        -13.5213  15.9036  73.6012 N.ar           1 RES1               0.0000
     17 C17        -12.2810  16.3602  73.3727 C.ar           1 RES1               0.0000
     18 C18        -11.6462  16.1313  72.1771 C.ar           1 RES1               0.0000
     19 H19         -9.6107  10.7081  63.5494 H              1 RES1               0.0000
     20 H20        -11.3731  11.4913  62.0382 H              1 RES1               0.0000
     21 H21        -13.3004  12.6791  62.9826 H              1 RES1               0.0000
     22 H22        -13.4700  13.0749  65.3492 H              1 RES1               0.0000
     23 H23        -11.1738  14.4073  67.4235 H              1 RES1               0.0000
     24 H24        -11.0808  13.0335  69.9672 H              1 RES1               0.0000
     25 H25        -12.7712  13.3738  69.5700 H              1 RES1               0.0000
     26 H26        -10.5658  15.3918  69.9957 H              1 RES1               0.0000
     27 H27        -12.1316  15.8008  69.1176 H              1 RES1               0.0000
     28 H28        -14.1283  14.4108  70.7287 H              1 RES1               0.0000
     29 H29        -15.1757  14.8370  72.8382 H              1 RES1               0.0000
     30 H30        -11.7641  16.9207  74.1408 H              1 RES1               0.0000
     31 H31        -10.6308  16.4996  71.9777 H              1 RES1               0.0000
     32 ****       -12.3888  10.5363  67.6999 LP             1 RES1               0.0000
     33 ****       -12.2893  11.6100  69.0553 LP             1 RES1               0.0000
     34 ****       -13.9615  16.0840  74.4808 LP             1 RES1               0.0000
@<TRIPOS>BOND
    1    1    2 1     
    2    2    3 ar    
    3    3    4 ar    
    4    4    5 ar    
    5    5    6 ar    
    6    6    7 ar    
    7    7    8 1     
    8    8    9 2     
    9    8   10 am    
   10   10   11 1     
   11   11   12 1     
   12   12   13 1     
   13   13   14 ar    
   14   14   15 ar    
   15   15   16 ar    
   16   16   17 ar    
   17   17   18 ar    
   18    2    7 ar    
   19   13   18 ar    
   20    3   19 1     
   21    4   20 1     
   22    5   21 1     
   23    6   22 1     
   24   10   23 1     
   25   11   24 1     
   26   11   25 1     
   27   12   26 1     
   28   12   27 1     
   29   14   28 1     
   30   15   29 1     
   31   17   30 1     
   32   18   31 1     
   33    9   32 1     
   34    9   33 1     
   35   16   34 1     
@<TRIPOS>SUBSTRUCTURE
      1 RES1           1
@<TRIPOS>SET
LONE_PAIRS      STATIC     ATOMS    <user>   **** ""
3 32 33 34
DONOR_HYDROGENS      STATIC     ATOMS    <user>   **** ""
1 23
ATOM$BLUE        STATIC     ATOMS    COLORGROUP SYSTEM
3 32 33 34
ATOM$RED        STATIC     ATOMS    COLORGROUP SYSTEM
1 23
@<TRIPOS>COMMENT
> <Gold.Version>
2022.1.0

> <Gold.Id.Protein>
6LU7|6LU7_protein|mol2

> <Gold.Protein.RotatedTorsions>
[ 3973 1471 1470 1467 ] final  -54.39 input   60.00 | X-H torsion
[ 3372  414  413  411 ] final  -86.95 input   60.00 | X-H torsion
[ 4268 1114 1113 1110 ] final   28.11 input   59.99 | X-H torsion
[ 4409  924  923  921 ] final  -78.18 input   59.99 | X-H torsion
[ 4183 1244 1243 1241 ] final  -47.94 input   59.99 | X-H torsion
[ 3800  178  177  174 ] final  -56.43 input   60.00 | X-H torsion
[ 3793  171  170  167 ] final  -27.31 input   60.00 | X-H torsion
[ 3576  185  184  181 ] final -129.74 input   60.00 | X-H torsion
[ 3523  346  345  342 ] final  103.33 input   60.01 | X-H torsion
[ 3515  339  338  335 ] final   56.47 input   60.00 | X-H torsion
[ 3663  154  153  150 ] final  154.00 input   60.00 | X-H torsion
[ 4280 1130 1129 1126 ] final  142.04 input   60.00 | X-H torsion

> <Gold.Protein.ActiveResidues>
 VAL20   THR21   CYS22   GLY23   THR24   THR25   THR26   LEU27   ASN28   PRO39  
 ARG40   HIS41   VAL42   CYS44   THR45   SER46   ASP48   MET49   LEU50   PRO52  
 TYR54   TYR118  ASN119  ILE136  GLY138  SER139  PHE140  LEU141  ASN142  GLY143 
 SER144  CYS145  GLY146  SER147  TYR161  HIS163  HIS164  MET165  GLU166  LEU167 
 PRO168  THR169  GLY170  VAL171  HIS172  ALA173  PHE181  PHE185  VAL186  ASP187 
 ARG188  GLN189  THR190  ALA191  GLN192  ALA193 

> <Gold.Protein.RotatedAtoms>
  -15.4282   17.7611   75.0903 H   0  0  0  0  0  0  0  0  0  0  0  0  # atno 3372 bound_to 414 
   -3.5954   21.6882   74.1920 H   0  0  0  0  0  0  0  0  0  0  0  0  # atno 3515 bound_to 339 
   -2.1943   18.3322   73.1640 H   0  0  0  0  0  0  0  0  0  0  0  0  # atno 3523 bound_to 346 
   -7.3896   25.4026   63.0527 H   0  0  0  0  0  0  0  0  0  0  0  0  # atno 3576 bound_to 185 
   -7.1525   29.8635   65.0093 H   0  0  0  0  0  0  0  0  0  0  0  0  # atno 3663 bound_to 154 
   -3.2804   24.8521   72.4503 H   0  0  0  0  0  0  0  0  0  0  0  0  # atno 3793 bound_to 171 
   -6.4627   22.5213   71.3719 H   0  0  0  0  0  0  0  0  0  0  0  0  # atno 3800 bound_to 178 
  -14.9791    8.9212   77.1939 H   0  0  0  0  0  0  0  0  0  0  0  0  # atno 3973 bound_to 1471
  -20.6531   13.3728   64.6504 H   0  0  0  0  0  0  0  0  0  0  0  0  # atno 4183 bound_to 1244
  -13.6461   16.4473   62.0191 H   0  0  0  0  0  0  0  0  0  0  0  0  # atno 4268 bound_to 1114
  -15.6248   18.6756   59.0797 H   0  0  0  0  0  0  0  0  0  0  0  0  # atno 4280 bound_to 1130
  -12.1421   15.4256   57.4465 H   0  0  0  0  0  0  0  0  0  0  0  0  # atno 4409 bound_to 924 
  -15.6123    8.3349   78.5735 LP  0  0  0  0  0  0  0  0  0  0  0  0  # atno 4696 bound_to 1471
  -15.4455    7.3641   77.2710 LP  0  0  0  0  0  0  0  0  0  0  0  0  # atno 4697 bound_to 1471
  -14.7287   16.9873   76.3393 LP  0  0  0  0  0  0  0  0  0  0  0  0  # atno 4731 bound_to 414 
  -13.9339   18.1895   75.5715 LP  0  0  0  0  0  0  0  0  0  0  0  0  # atno 4732 bound_to 414 
  -12.3970   15.5339   61.5157 LP  0  0  0  0  0  0  0  0  0  0  0  0  # atno 4733 bound_to 1114
  -13.8690   15.3581   60.8308 LP  0  0  0  0  0  0  0  0  0  0  0  0  # atno 4734 bound_to 1114
  -10.6210   14.9725   57.8059 LP  0  0  0  0  0  0  0  0  0  0  0  0  # atno 4763 bound_to 924 
  -11.0955   15.0868   56.2475 LP  0  0  0  0  0  0  0  0  0  0  0  0  # atno 4764 bound_to 924 
  -19.8619   13.6903   63.2644 LP  0  0  0  0  0  0  0  0  0  0  0  0  # atno 4771 bound_to 1244
  -20.8502   12.3942   63.3653 LP  0  0  0  0  0  0  0  0  0  0  0  0  # atno 4772 bound_to 1244
   -7.6916   22.9409   72.3527 LP  0  0  0  0  0  0  0  0  0  0  0  0  # atno 4775 bound_to 178 
   -6.4641   23.9841   72.0850 LP  0  0  0  0  0  0  0  0  0  0  0  0  # atno 4776 bound_to 178 
   -1.7680   24.2614   72.5581 LP  0  0  0  0  0  0  0  0  0  0  0  0  # atno 4779 bound_to 171 
   -2.9087   23.4454   71.7217 LP  0  0  0  0  0  0  0  0  0  0  0  0  # atno 4780 bound_to 171 
   -7.7727   26.8491   63.6922 LP  0  0  0  0  0  0  0  0  0  0  0  0  # atno 4783 bound_to 185 
   -8.7933   25.5848   63.8554 LP  0  0  0  0  0  0  0  0  0  0  0  0  # atno 4784 bound_to 185 
   -3.6587   17.7104   72.8221 LP  0  0  0  0  0  0  0  0  0  0  0  0  # atno 4785 bound_to 346 
   -2.3146   16.8092   72.6036 LP  0  0  0  0  0  0  0  0  0  0  0  0  # atno 4786 bound_to 346 
   -3.1712   20.4511   75.1602 LP  0  0  0  0  0  0  0  0  0  0  0  0  # atno 4787 bound_to 339 
   -2.6986   21.9723   75.5198 LP  0  0  0  0  0  0  0  0  0  0  0  0  # atno 4788 bound_to 339 
   -8.5843   29.1172   65.2123 LP  0  0  0  0  0  0  0  0  0  0  0  0  # atno 4797 bound_to 154 
   -7.1928   28.3125   65.5000 LP  0  0  0  0  0  0  0  0  0  0  0  0  # atno 4798 bound_to 154 

> <Gold.Score>
     Score     S(PLP)   S(hbond)     S(cho)   S(metal)  DE(clash)   DE(tors)     intcor
     52.02     -52.41       1.00       0.00       0.00       0.00       1.73       0.07

> <Gold.PLP.Fitness>
52.0241

> <Gold.PLP.PLP>
-52.4130

> <Gold.PLP.part.hbond>
-1.4065

> <Gold.PLP.part.metal>
0.0000

> <Gold.PLP.part.buried>
-6.5549

> <Gold.PLP.part.nonpolar>
-46.7517

> <Gold.PLP.part.repulsive>
0.9176

> <Gold.PLP.ligand.clash>
0.0000

> <Gold.PLP.ligand.torsion>
1.7270

> <Gold.PLP.Chemscore.Hbond>
1.0000

> <Gold.PLP.Chemscore.CHOScore>
0.0000

> <Gold.PLP.Chemscore.Metal>
0.0000

> <Gold.Chemscore.Hbonds>
donor molecule, donor type, donor heavy atom, donor atom, acceptor molecule, acceptor atom, score
      P1  H  1281  4132       L1     9  1.00

> <Gold.PLP.Chemscore.Internal.Correction>
0.0651

