#       Name:                unknown
#       Creating user name   williammccorkindale
#       Creation time:       Tue Jun  7 14:55:42 2022


#       File generated by GOLD software.
#

@<TRIPOS>MOLECULE
unknown|prepared_Mpro-x0395|mol2|1|dock5
    29    30     1
SMALL
NO_CHARGES


@<TRIPOS>ATOM
      1 C1         -10.4518  17.9972  65.8202 C.3            1 RES1               0.0000
      2 C2         -10.7913  17.0187  66.9155 C.2            1 RES1               0.0000
      3 N3         -10.8231  17.2243  68.2280 N.2            1 RES1               0.0000
      4 N4         -11.1308  16.2854  69.0094 N.2            1 RES1               0.0000
      5 C5         -11.4259  15.0821  68.5289 C.2            1 RES1               0.0000
      6 C6         -11.8136  13.8286  69.2254 C.3            1 RES1               0.0000
      7 N7         -12.0033  13.9890  70.6242 N.3            1 RES1               0.0000
      8 C8         -12.6000  12.7874  71.1701 C.3            1 RES1               0.0000
      9 C9         -13.7702  13.0940  72.0967 C.3            1 RES1               0.0000
     10 C10        -13.2655  14.1004  73.0740 C.2            1 RES1               0.0000
     11 C11        -12.6992  15.1888  72.5357 C.2            1 RES1               0.0000
     12 F12        -12.1914  16.1951  73.2569 F              1 RES1               0.0000
     13 C13        -12.6843  15.1792  71.0228 C.3            1 RES1               0.0000
     14 S14        -11.2353  15.3681  66.8407 S.3            1 RES1               0.0000
     15 H15        -11.3024  18.6426  65.6012 H              1 RES1               0.0000
     16 H16        -10.2183  17.3880  64.9268 H              1 RES1               0.0000
     17 H17         -9.5444  18.5346  66.1720 H              1 RES1               0.0000
     18 H18        -11.0468  13.0481  69.0627 H              1 RES1               0.0000
     19 H19        -12.7432  13.4504  68.7437 H              1 RES1               0.0000
     20 H20        -12.9338  12.1348  70.3435 H              1 RES1               0.0000
     21 H21        -11.8303  12.3082  71.8093 H              1 RES1               0.0000
     22 H22        -14.6374  13.5026  71.5395 H              1 RES1               0.0000
     23 H23        -14.0586  12.1420  72.5730 H              1 RES1               0.0000
     24 H24        -13.3284  14.0046  74.1388 H              1 RES1               0.0000
     25 H25        -13.7334  15.2421  70.7153 H              1 RES1               0.0000
     26 H26        -12.1616  16.0831  70.6966 H              1 RES1               0.0000
     27 ****       -10.6020  18.1273  68.5965 LP             1 RES1               0.0000
     28 ****       -11.1530  16.4463  69.9961 LP             1 RES1               0.0000
     29 ****       -11.0942  14.1201  71.0198 LP             1 RES1               0.0000
@<TRIPOS>BOND
    1    1    2 1     
    2    2    3 2     
    3    3    4 1     
    4    4    5 2     
    5    5    6 1     
    6    6    7 1     
    7    7    8 1     
    8    8    9 1     
    9    9   10 1     
   10   10   11 2     
   11   11   12 1     
   12   11   13 1     
   13    5   14 1     
   14   14    2 1     
   15   13    7 1     
   16    1   15 1     
   17    1   16 1     
   18    1   17 1     
   19    6   18 1     
   20    6   19 1     
   21    8   20 1     
   22    8   21 1     
   23    9   22 1     
   24    9   23 1     
   25   10   24 1     
   26   13   25 1     
   27   13   26 1     
   28    3   27 1     
   29    4   28 1     
   30    7   29 1     
@<TRIPOS>SUBSTRUCTURE
      1 RES1           1
@<TRIPOS>SET
LONE_PAIRS      STATIC     ATOMS    <user>   **** ""
3 27 28 29
ATOM$BLUE        STATIC     ATOMS    COLORGROUP SYSTEM
3 27 28 29
@<TRIPOS>COMMENT
> <Gold.Version>
2022.1.0

> <Gold.Id.Protein>
6LU7|6LU7_protein|mol2

> <Gold.Protein.RotatedTorsions>
[ 3973 1471 1470 1467 ] final   11.77 input   60.00 | X-H torsion
[ 3372  414  413  411 ] final -153.28 input   60.00 | X-H torsion
[ 4268 1114 1113 1110 ] final  -84.52 input   59.99 | X-H torsion
[ 4409  924  923  921 ] final -170.40 input   59.99 | X-H torsion
[ 4183 1244 1243 1241 ] final    0.66 input   59.99 | X-H torsion
[ 3800  178  177  174 ] final -160.85 input   60.00 | X-H torsion
[ 3793  171  170  167 ] final   92.35 input   60.00 | X-H torsion
[ 3576  185  184  181 ] final  153.62 input   60.00 | X-H torsion
[ 3523  346  345  342 ] final -128.50 input   60.01 | X-H torsion
[ 3515  339  338  335 ] final   93.64 input   60.00 | X-H torsion
[ 3663  154  153  150 ] final   19.26 input   60.00 | X-H torsion
[ 4280 1130 1129 1126 ] final -157.42 input   60.00 | X-H torsion

> <Gold.Protein.ActiveResidues>
 VAL20   THR21   CYS22   GLY23   THR24   THR25   THR26   LEU27   ASN28   PRO39  
 ARG40   HIS41   VAL42   CYS44   THR45   SER46   ASP48   MET49   LEU50   PRO52  
 TYR54   TYR118  ASN119  ILE136  GLY138  SER139  PHE140  LEU141  ASN142  GLY143 
 SER144  CYS145  GLY146  SER147  TYR161  HIS163  HIS164  MET165  GLU166  LEU167 
 PRO168  THR169  GLY170  VAL171  HIS172  ALA173  PHE181  PHE185  VAL186  ASP187 
 ARG188  GLN189  THR190  ALA191  GLN192  ALA193 

> <Gold.Protein.RotatedAtoms>
  -15.4093   17.0617   75.8384 H   0  0  0  0  0  0  0  0  0  0  0  0  # atno 3372 bound_to 414 
   -3.3428   22.1507   74.4717 H   0  0  0  0  0  0  0  0  0  0  0  0  # atno 3515 bound_to 339 
   -2.4413   16.7711   72.5824 H   0  0  0  0  0  0  0  0  0  0  0  0  # atno 3523 bound_to 346 
   -7.2767   26.5239   63.3315 H   0  0  0  0  0  0  0  0  0  0  0  0  # atno 3576 bound_to 185 
   -8.5533   28.8902   65.2876 H   0  0  0  0  0  0  0  0  0  0  0  0  # atno 3663 bound_to 154 
   -2.9116   23.4539   71.7232 H   0  0  0  0  0  0  0  0  0  0  0  0  # atno 3793 bound_to 171 
   -7.6563   22.7247   72.2227 H   0  0  0  0  0  0  0  0  0  0  0  0  # atno 3800 bound_to 178 
  -15.1087    7.9872   76.7998 H   0  0  0  0  0  0  0  0  0  0  0  0  # atno 3973 bound_to 1471
  -21.0116   12.7413   64.3928 H   0  0  0  0  0  0  0  0  0  0  0  0  # atno 4183 bound_to 1244
  -12.3941   15.6195   61.6009 H   0  0  0  0  0  0  0  0  0  0  0  0  # atno 4268 bound_to 1114
  -16.0563   18.7530   58.2438 H   0  0  0  0  0  0  0  0  0  0  0  0  # atno 4280 bound_to 1130
  -10.9829   15.0881   58.0491 H   0  0  0  0  0  0  0  0  0  0  0  0  # atno 4409 bound_to 924 
  -15.2067    9.0849   77.9971 LP  0  0  0  0  0  0  0  0  0  0  0  0  # atno 4696 bound_to 1471
  -15.7206    7.5547   78.2443 LP  0  0  0  0  0  0  0  0  0  0  0  0  # atno 4697 bound_to 1471
  -13.9182   17.6083   76.1932 LP  0  0  0  0  0  0  0  0  0  0  0  0  # atno 4731 bound_to 414 
  -14.7635   18.2728   74.9642 LP  0  0  0  0  0  0  0  0  0  0  0  0  # atno 4732 bound_to 414 
  -13.7717   15.2938   60.7984 LP  0  0  0  0  0  0  0  0  0  0  0  0  # atno 4733 bound_to 1114
  -13.7551   16.4319   61.9693 LP  0  0  0  0  0  0  0  0  0  0  0  0  # atno 4734 bound_to 1114
  -10.7067   14.9736   56.4496 LP  0  0  0  0  0  0  0  0  0  0  0  0  # atno 4763 bound_to 924 
  -12.1773   15.4256   56.9968 LP  0  0  0  0  0  0  0  0  0  0  0  0  # atno 4764 bound_to 924 
  -19.9772   13.9320   63.9926 LP  0  0  0  0  0  0  0  0  0  0  0  0  # atno 4771 bound_to 1244
  -20.3738   12.7884   62.8965 LP  0  0  0  0  0  0  0  0  0  0  0  0  # atno 4772 bound_to 1244
   -6.6702   24.0192   72.2319 LP  0  0  0  0  0  0  0  0  0  0  0  0  # atno 4775 bound_to 178 
   -6.2836   22.7010   71.3491 LP  0  0  0  0  0  0  0  0  0  0  0  0  # atno 4776 bound_to 178 
   -3.2814   24.8586   72.4566 LP  0  0  0  0  0  0  0  0  0  0  0  0  # atno 4779 bound_to 171 
   -1.7667   24.2565   72.5555 LP  0  0  0  0  0  0  0  0  0  0  0  0  # atno 4780 bound_to 171 
   -8.7256   26.2576   64.0227 LP  0  0  0  0  0  0  0  0  0  0  0  0  # atno 4783 bound_to 185 
   -7.9541   25.0470   63.2442 LP  0  0  0  0  0  0  0  0  0  0  0  0  # atno 4784 bound_to 185 
   -2.0855   18.2568   73.1430 LP  0  0  0  0  0  0  0  0  0  0  0  0  # atno 4785 bound_to 346 
   -3.6390   17.8349   72.8685 LP  0  0  0  0  0  0  0  0  0  0  0  0  # atno 4786 bound_to 346 
   -3.4811   20.5395   74.6531 LP  0  0  0  0  0  0  0  0  0  0  0  0  # atno 4787 bound_to 339 
   -2.6430   21.4181   75.7451 LP  0  0  0  0  0  0  0  0  0  0  0  0  # atno 4788 bound_to 339 
   -6.9967   28.4487   65.4610 LP  0  0  0  0  0  0  0  0  0  0  0  0  # atno 4797 bound_to 154 
   -7.3696   29.9611   64.9710 LP  0  0  0  0  0  0  0  0  0  0  0  0  # atno 4798 bound_to 154 

> <Gold.Score>
     Score     S(PLP)   S(hbond)     S(cho)   S(metal)  DE(clash)   DE(tors)     intcor
     37.06     -37.32       0.00       0.00       0.00       0.00       0.14       0.02

> <Gold.PLP.Fitness>
37.0577

> <Gold.PLP.PLP>
-37.3241

> <Gold.PLP.part.hbond>
0.0000

> <Gold.PLP.part.metal>
0.0000

> <Gold.PLP.part.buried>
-5.6809

> <Gold.PLP.part.nonpolar>
-33.3019

> <Gold.PLP.part.repulsive>
0.3602

> <Gold.PLP.ligand.clash>
0.0000

> <Gold.PLP.ligand.torsion>
0.1432

> <Gold.PLP.Chemscore.Hbond>
0.0000

> <Gold.PLP.Chemscore.CHOScore>
0.0000

> <Gold.PLP.Chemscore.Metal>
0.0000

> <Gold.PLP.Chemscore.Internal.Correction>
0.0201

