#       Name:                unknown
#       Creating user name   williammccorkindale
#       Creation time:       Tue Jun  7 14:55:41 2022


#       File generated by GOLD software.
#

@<TRIPOS>MOLECULE
unknown|prepared_Mpro-x0967|mol2|1|dock1
    41    41     1
SMALL
NO_CHARGES


@<TRIPOS>ATOM
      1 C1         -12.3448  14.6076  72.9313 C.3            1 RES1               0.0000
      2 C2         -12.1634  15.1042  71.5317 C.2            1 RES1               0.0000
      3 O3         -12.9992  15.8973  71.0366 O.2            1 RES1               0.0000
      4 N4         -11.0512  14.6785  70.7237 N.am           1 RES1               0.0000
      5 C5         -11.0769  15.2711  69.3527 C.3            1 RES1               0.0000
      6 C6         -11.4451  13.9340  68.6140 C.3            1 RES1               0.0000
      7 C7         -11.7289  14.0289  67.2520 C.ar           1 RES1               0.0000
      8 C8         -11.7616  14.9867  66.2731 C.ar           1 RES1               0.0000
      9 C9         -11.9580  14.9970  65.0287 C.ar           1 RES1               0.0000
     10 C10        -12.2459  13.6634  64.3387 C.ar           1 RES1               0.0000
     11 C11        -12.2416  12.6721  65.2549 C.ar           1 RES1               0.0000
     12 C12        -12.0405  12.6895  66.5682 C.ar           1 RES1               0.0000
     13 O13        -12.3413  13.6666  63.0140 O.3            1 RES1               0.0000
     14 C14         -9.6729  15.6556  69.0367 C.2            1 RES1               0.0000
     15 O15         -9.1737  16.4289  68.2112 O.2            1 RES1               0.0000
     16 N16         -8.7024  14.9513  69.8757 N.am           1 RES1               0.0000
     17 C17         -7.5393  15.2049  69.7295 C.3            1 RES1               0.0000
     18 C18         -6.2977  14.7145  70.8912 C.1            1 RES1               0.0000
     19 C19         -5.1480  14.2453  71.9808 C.1            1 RES1               0.0000
     20 Br20        -3.8865  13.7520  73.1668 Br             1 RES1               0.0000
     21 H21        -12.4640  13.5174  72.8904 H              1 RES1               0.0000
     22 H22        -11.4810  14.8705  73.5710 H              1 RES1               0.0000
     23 H23        -13.2886  15.0601  73.3489 H              1 RES1               0.0000
     24 H24        -10.3618  14.0506  70.9969 H              1 RES1               0.0000
     25 H25        -11.7676  16.0426  69.1706 H              1 RES1               0.0000
     26 H26        -12.0921  13.3559  69.2310 H              1 RES1               0.0000
     27 H27        -10.4007  13.3627  68.7921 H              1 RES1               0.0000
     28 H28        -11.7712  16.0211  66.7396 H              1 RES1               0.0000
     29 H29        -11.9524  15.7693  64.2555 H              1 RES1               0.0000
     30 H30        -12.4957  11.6441  64.8074 H              1 RES1               0.0000
     31 H31        -12.0539  11.9042  67.3029 H              1 RES1               0.0000
     32 H32        -12.6034  14.3951  62.4078 H              1 RES1               0.0000
     33 H33         -9.0259  14.3087  70.6136 H              1 RES1               0.0000
     34 H34         -6.7633  14.6814  68.9445 H              1 RES1               0.0000
     35 H35         -6.9226  16.2502  69.6896 H              1 RES1               0.0000
     36 ****       -13.7854  16.1968  71.5771 LP             1 RES1               0.0000
     37 ****       -12.8795  16.2302  70.1013 LP             1 RES1               0.0000
     38 ****       -12.9897  12.9326  62.8119 LP             1 RES1               0.0000
     39 ****       -11.4294  13.4015  62.7007 LP             1 RES1               0.0000
     40 ****        -9.7628  16.9426  67.5875 LP             1 RES1               0.0000
     41 ****        -8.1809  16.5406  68.1673 LP             1 RES1               0.0000
@<TRIPOS>BOND
    1    1    2 1     
    2    2    3 2     
    3    2    4 am    
    4    4    5 1     
    5    5    6 1     
    6    6    7 1     
    7    7    8 ar    
    8    8    9 ar    
    9    9   10 ar    
   10   10   11 ar    
   11   11   12 ar    
   12   10   13 1     
   13    5   14 1     
   14   14   15 2     
   15   14   16 am    
   16   16   17 1     
   17   17   18 1     
   18   18   19 3     
   19   19   20 1     
   20   12    7 ar    
   21    1   21 1     
   22    1   22 1     
   23    1   23 1     
   24    4   24 1     
   25    5   25 1     
   26    6   26 1     
   27    6   27 1     
   28    8   28 1     
   29    9   29 1     
   30   11   30 1     
   31   12   31 1     
   32   13   32 1     
   33   16   33 1     
   34   17   34 1     
   35   17   35 1     
   36    3   36 1     
   37    3   37 1     
   38   13   38 1     
   39   13   39 1     
   40   15   40 1     
   41   15   41 1     
@<TRIPOS>SUBSTRUCTURE
      1 RES1           1
@<TRIPOS>SET
LONE_PAIRS      STATIC     ATOMS    <user>   **** ""
6 36 37 38 39 40 41
DONOR_HYDROGENS      STATIC     ATOMS    <user>   **** ""
3 24 32 33
ATOM$BLUE        STATIC     ATOMS    COLORGROUP SYSTEM
6 36 37 38 39 40 41
ATOM$RED        STATIC     ATOMS    COLORGROUP SYSTEM
3 24 32 33
@<TRIPOS>COMMENT
> <Gold.Version>
2022.1.0

> <Gold.Id.Protein>
6LU7|6LU7_protein|mol2

> <Gold.Protein.RotatedTorsions>
[ 3973 1471 1470 1467 ] final   91.76 input   60.00 | X-H torsion
[ 3372  414  413  411 ] final -153.44 input   60.00 | X-H torsion
[ 4268 1114 1113 1110 ] final   69.86 input   59.99 | X-H torsion
[ 4409  924  923  921 ] final  153.12 input   59.99 | X-H torsion
[ 4183 1244 1243 1241 ] final  123.99 input   59.99 | X-H torsion
[ 3800  178  177  174 ] final -147.68 input   60.00 | X-H torsion
[ 3793  171  170  167 ] final  149.01 input   60.00 | X-H torsion
[ 3576  185  184  181 ] final -126.42 input   60.00 | X-H torsion
[ 3523  346  345  342 ] final  133.79 input   60.01 | X-H torsion
[ 3515  339  338  335 ] final -120.23 input   60.00 | X-H torsion
[ 3663  154  153  150 ] final  109.28 input   60.00 | X-H torsion
[ 4280 1130 1129 1126 ] final   73.15 input   60.00 | X-H torsion

> <Gold.Protein.ActiveResidues>
 VAL20   THR21   CYS22   GLY23   THR24   THR25   THR26   LEU27   ASN28   PRO39  
 ARG40   HIS41   VAL42   CYS44   THR45   SER46   ASP48   MET49   LEU50   PRO52  
 TYR54   TYR118  ASN119  ILE136  GLY138  SER139  PHE140  LEU141  ASN142  GLY143 
 SER144  CYS145  GLY146  SER147  TYR161  HIS163  HIS164  MET165  GLU166  LEU167 
 PRO168  THR169  GLY170  VAL171  HIS172  ALA173  PHE181  PHE185  VAL186  ASP187 
 ARG188  GLN189  THR190  ALA191  GLN192  ALA193 

> <Gold.Protein.RotatedAtoms>
  -15.4080   17.0606   75.8404 H   0  0  0  0  0  0  0  0  0  0  0  0  # atno 3372 bound_to 414 
   -2.7357   21.0052   75.7076 H   0  0  0  0  0  0  0  0  0  0  0  0  # atno 3515 bound_to 339 
   -1.8764   17.9718   73.0593 H   0  0  0  0  0  0  0  0  0  0  0  0  # atno 3523 bound_to 346 
   -7.4245   25.3616   63.0590 H   0  0  0  0  0  0  0  0  0  0  0  0  # atno 3576 bound_to 185 
   -7.8556   29.9671   64.9604 H   0  0  0  0  0  0  0  0  0  0  0  0  # atno 3663 bound_to 154 
   -2.0699   23.4965   72.0045 H   0  0  0  0  0  0  0  0  0  0  0  0  # atno 3793 bound_to 171 
   -7.5852   22.5637   72.0998 H   0  0  0  0  0  0  0  0  0  0  0  0  # atno 3800 bound_to 178 
  -15.5926    7.3058   77.6655 H   0  0  0  0  0  0  0  0  0  0  0  0  # atno 3973 bound_to 1471
  -20.3418   12.8328   62.8898 H   0  0  0  0  0  0  0  0  0  0  0  0  # atno 4183 bound_to 1244
  -14.1211   16.2115   61.6146 H   0  0  0  0  0  0  0  0  0  0  0  0  # atno 4268 bound_to 1114
  -15.5787   19.5672   59.6492 H   0  0  0  0  0  0  0  0  0  0  0  0  # atno 4280 bound_to 1130
  -10.5414   14.9488   57.6898 H   0  0  0  0  0  0  0  0  0  0  0  0  # atno 4409 bound_to 924 
  -14.9737    8.6063   76.9083 LP  0  0  0  0  0  0  0  0  0  0  0  0  # atno 4696 bound_to 1471
  -15.4662    8.7196   78.4611 LP  0  0  0  0  0  0  0  0  0  0  0  0  # atno 4697 bound_to 1471
  -13.9172   17.6102   76.1918 LP  0  0  0  0  0  0  0  0  0  0  0  0  # atno 4731 bound_to 414 
  -14.7659   18.2719   74.9636 LP  0  0  0  0  0  0  0  0  0  0  0  0  # atno 4732 bound_to 414 
  -12.5429   16.0164   61.9597 LP  0  0  0  0  0  0  0  0  0  0  0  0  # atno 4733 bound_to 1114
  -13.2445   15.1131   60.7942 LP  0  0  0  0  0  0  0  0  0  0  0  0  # atno 4734 bound_to 1114
  -11.2312   15.1272   56.2269 LP  0  0  0  0  0  0  0  0  0  0  0  0  # atno 4763 bound_to 924 
  -12.0975   15.4123   57.5814 LP  0  0  0  0  0  0  0  0  0  0  0  0  # atno 4764 bound_to 924 
  -21.0261   12.6993   64.3601 LP  0  0  0  0  0  0  0  0  0  0  0  0  # atno 4771 bound_to 1244
  -19.9995   13.9290   64.0427 LP  0  0  0  0  0  0  0  0  0  0  0  0  # atno 4772 bound_to 1244
   -6.8566   23.9989   72.3395 LP  0  0  0  0  0  0  0  0  0  0  0  0  # atno 4775 bound_to 178 
   -6.1688   22.8834   71.3652 LP  0  0  0  0  0  0  0  0  0  0  0  0  # atno 4776 bound_to 178 
   -3.5522   24.1661   71.9587 LP  0  0  0  0  0  0  0  0  0  0  0  0  # atno 4779 bound_to 171 
   -2.3436   24.9061   72.7700 LP  0  0  0  0  0  0  0  0  0  0  0  0  # atno 4780 bound_to 171 
   -7.7260   26.8413   63.6650 LP  0  0  0  0  0  0  0  0  0  0  0  0  # atno 4783 bound_to 185 
   -8.8049   25.6339   63.8764 LP  0  0  0  0  0  0  0  0  0  0  0  0  # atno 4784 bound_to 185 
   -3.4930   18.1452   72.9918 LP  0  0  0  0  0  0  0  0  0  0  0  0  # atno 4785 bound_to 346 
   -2.8004   16.7373   72.5394 LP  0  0  0  0  0  0  0  0  0  0  0  0  # atno 4786 bound_to 346 
   -3.1100   22.2991   74.7945 LP  0  0  0  0  0  0  0  0  0  0  0  0  # atno 4787 bound_to 339 
   -3.6256   20.8121   74.3590 LP  0  0  0  0  0  0  0  0  0  0  0  0  # atno 4788 bound_to 339 
   -8.3293   28.4800   65.4209 LP  0  0  0  0  0  0  0  0  0  0  0  0  # atno 4797 bound_to 154 
   -6.7397   28.8453   65.3406 LP  0  0  0  0  0  0  0  0  0  0  0  0  # atno 4798 bound_to 154 

> <Gold.Score>
     Score     S(PLP)   S(hbond)     S(cho)   S(metal)  DE(clash)   DE(tors)     intcor
     51.28     -43.50       3.00       0.00       0.00       0.00       0.95       0.68

> <Gold.PLP.Fitness>
51.2811

> <Gold.PLP.PLP>
-43.5050

> <Gold.PLP.part.hbond>
-4.7445

> <Gold.PLP.part.metal>
0.0000

> <Gold.PLP.part.buried>
-8.1010

> <Gold.PLP.part.nonpolar>
-32.0493

> <Gold.PLP.part.repulsive>
0.1665

> <Gold.PLP.ligand.clash>
0.0000

> <Gold.PLP.ligand.torsion>
0.9530

> <Gold.PLP.Chemscore.Hbond>
3.0000

> <Gold.PLP.Chemscore.CHOScore>
0.0000

> <Gold.PLP.Chemscore.Metal>
0.0000

> <Gold.Chemscore.Hbonds>
donor molecule, donor type, donor heavy atom, donor atom, acceptor molecule, acceptor atom, score
      L1  H     4    24       P1  1464  1.00
      L1  H    13    32       P1  1114  1.00
      L1  H    16    33       P1  1464  1.00

> <Gold.PLP.Chemscore.Internal.Correction>
0.6821

