#       Name:                unknown
#       Creating user name   williammccorkindale
#       Creation time:       Tue Jun  7 14:55:35 2022


#       File generated by GOLD software.
#

@<TRIPOS>MOLECULE
unknown|prepared_Mpro-x0426|mol2|1|dock1
    34    35     1
SMALL
NO_CHARGES


@<TRIPOS>ATOM
      1 F1         -13.2117  12.9151  71.7295 F              1 RES1               0.0000
      2 C2         -12.7735  14.1292  72.1038 C.ar           1 RES1               0.0000
      3 C3         -13.1192  14.4902  73.4160 C.ar           1 RES1               0.0000
      4 C4         -12.7559  15.6957  73.9685 C.ar           1 RES1               0.0000
      5 C5         -12.0287  16.5484  73.1727 C.ar           1 RES1               0.0000
      6 C6         -11.6895  16.1961  71.8873 C.ar           1 RES1               0.0000
      7 C7         -12.0606  14.9673  71.3262 C.ar           1 RES1               0.0000
      8 C8         -11.6731  14.6521  69.9644 C.2            1 RES1               0.0000
      9 O9         -12.1545  15.3506  68.9952 O.2            1 RES1               0.0000
     10 N10        -10.7976  13.6323  69.5543 N.am           1 RES1               0.0000
     11 C11        -10.4893  13.4208  68.1317 C.3            1 RES1               0.0000
     12 C12        -11.1429  12.2147  67.5646 C.3            1 RES1               0.0000
     13 C13        -11.4012  12.2358  66.1239 C.ar           1 RES1               0.0000
     14 C14        -12.2367  13.1598  65.5767 C.ar           1 RES1               0.0000
     15 C15        -12.4948  13.2107  64.2054 C.ar           1 RES1               0.0000
     16 N16        -11.8989  12.3178  63.4006 N.ar           1 RES1               0.0000
     17 C17        -11.0693  11.3920  63.9042 C.ar           1 RES1               0.0000
     18 C18        -10.8046  11.3284  65.2498 C.ar           1 RES1               0.0000
     19 H19        -13.6939  13.8254  74.0562 H              1 RES1               0.0000
     20 H20        -13.0088  15.9932  74.9695 H              1 RES1               0.0000
     21 H21        -11.7109  17.5178  73.5522 H              1 RES1               0.0000
     22 H22        -11.1143  16.9078  71.3031 H              1 RES1               0.0000
     23 H23        -10.3602  13.0195  70.2584 H              1 RES1               0.0000
     24 H24         -9.4201  13.4928  67.9395 H              1 RES1               0.0000
     25 H25        -10.9536  14.3158  67.6203 H              1 RES1               0.0000
     26 H26        -10.4551  11.3524  67.7586 H              1 RES1               0.0000
     27 H27        -12.1280  12.0513  68.0801 H              1 RES1               0.0000
     28 H28        -12.7516  13.8964  66.1627 H              1 RES1               0.0000
     29 H29        -13.1640  13.9587  63.8058 H              1 RES1               0.0000
     30 H30        -10.5954  10.6778  63.2432 H              1 RES1               0.0000
     31 H31        -10.1273  10.5752  65.6746 H              1 RES1               0.0000
     32 ****       -12.7878  16.1006  69.1859 LP             1 RES1               0.0000
     33 ****       -11.8948  15.1430  68.0521 LP             1 RES1               0.0000
     34 ****       -12.0748  12.3428  62.4165 LP             1 RES1               0.0000
@<TRIPOS>BOND
    1    1    2 1     
    2    2    3 ar    
    3    3    4 ar    
    4    4    5 ar    
    5    5    6 ar    
    6    6    7 ar    
    7    7    8 1     
    8    8    9 2     
    9    8   10 am    
   10   10   11 1     
   11   11   12 1     
   12   12   13 1     
   13   13   14 ar    
   14   14   15 ar    
   15   15   16 ar    
   16   16   17 ar    
   17   17   18 ar    
   18    2    7 ar    
   19   13   18 ar    
   20    3   19 1     
   21    4   20 1     
   22    5   21 1     
   23    6   22 1     
   24   10   23 1     
   25   11   24 1     
   26   11   25 1     
   27   12   26 1     
   28   12   27 1     
   29   14   28 1     
   30   15   29 1     
   31   17   30 1     
   32   18   31 1     
   33    9   32 1     
   34    9   33 1     
   35   16   34 1     
@<TRIPOS>SUBSTRUCTURE
      1 RES1           1
@<TRIPOS>SET
LONE_PAIRS      STATIC     ATOMS    <user>   **** ""
3 32 33 34
DONOR_HYDROGENS      STATIC     ATOMS    <user>   **** ""
1 23
ATOM$BLUE        STATIC     ATOMS    COLORGROUP SYSTEM
3 32 33 34
ATOM$RED        STATIC     ATOMS    COLORGROUP SYSTEM
1 23
@<TRIPOS>COMMENT
> <Gold.Version>
2022.1.0

> <Gold.Id.Protein>
6LU7|6LU7_protein|mol2

> <Gold.Protein.RotatedTorsions>
[ 3973 1471 1470 1467 ] final  129.15 input   60.00 | X-H torsion
[ 3372  414  413  411 ] final  173.82 input   60.00 | X-H torsion
[ 4268 1114 1113 1110 ] final  127.01 input   59.99 | X-H torsion
[ 4409  924  923  921 ] final   23.58 input   59.99 | X-H torsion
[ 4183 1244 1243 1241 ] final  -43.57 input   59.99 | X-H torsion
[ 3800  178  177  174 ] final   66.17 input   60.00 | X-H torsion
[ 3793  171  170  167 ] final   85.28 input   60.00 | X-H torsion
[ 3576  185  184  181 ] final  -37.88 input   60.00 | X-H torsion
[ 3523  346  345  342 ] final  -48.60 input   60.01 | X-H torsion
[ 3515  339  338  335 ] final -107.37 input   60.00 | X-H torsion
[ 3663  154  153  150 ] final   33.88 input   60.00 | X-H torsion
[ 4280 1130 1129 1126 ] final -170.93 input   60.00 | X-H torsion

> <Gold.Protein.ActiveResidues>
 VAL20   THR21   CYS22   GLY23   THR24   THR25   THR26   LEU27   ASN28   PRO39  
 ARG40   HIS41   VAL42   CYS44   THR45   SER46   ASP48   MET49   LEU50   PRO52  
 TYR54   TYR118  ASN119  ILE136  GLY138  SER139  PHE140  LEU141  ASN142  GLY143 
 SER144  CYS145  GLY146  SER147  TYR161  HIS163  HIS164  MET165  GLU166  LEU167 
 PRO168  THR169  GLY170  VAL171  HIS172  ALA173  PHE181  PHE185  VAL186  ASP187 
 ARG188  GLN189  THR190  ALA191  GLN192  ALA193 

> <Gold.Protein.RotatedAtoms>
  -15.0322   16.9487   76.1936 H   0  0  0  0  0  0  0  0  0  0  0  0  # atno 3372 bound_to 414 
   -2.8121   20.8246   75.6332 H   0  0  0  0  0  0  0  0  0  0  0  0  # atno 3515 bound_to 339 
   -3.5491   17.2317   72.6609 H   0  0  0  0  0  0  0  0  0  0  0  0  # atno 3523 bound_to 346 
   -8.5871   25.2370   63.6427 H   0  0  0  0  0  0  0  0  0  0  0  0  # atno 3576 bound_to 185 
   -8.5778   29.1158   65.2152 H   0  0  0  0  0  0  0  0  0  0  0  0  # atno 3663 bound_to 154 
   -3.0165   23.5019   71.7201 H   0  0  0  0  0  0  0  0  0  0  0  0  # atno 3793 bound_to 171 
   -6.5005   23.9893   72.1075 H   0  0  0  0  0  0  0  0  0  0  0  0  # atno 3800 bound_to 178 
  -15.7129    7.5306   78.2089 H   0  0  0  0  0  0  0  0  0  0  0  0  # atno 3973 bound_to 1471
  -20.6958   13.3155   64.6522 H   0  0  0  0  0  0  0  0  0  0  0  0  # atno 4183 bound_to 1244
  -14.0853   15.5801   60.9804 H   0  0  0  0  0  0  0  0  0  0  0  0  # atno 4268 bound_to 1114
  -15.9492   18.6512   58.4071 H   0  0  0  0  0  0  0  0  0  0  0  0  # atno 4280 bound_to 1130
  -11.3800   15.1744   56.2357 H   0  0  0  0  0  0  0  0  0  0  0  0  # atno 4409 bound_to 924 
  -15.0958    8.0269   76.7873 LP  0  0  0  0  0  0  0  0  0  0  0  0  # atno 4696 bound_to 1471
  -15.2230    9.0726   78.0350 LP  0  0  0  0  0  0  0  0  0  0  0  0  # atno 4697 bound_to 1471
  -13.8395   17.9959   75.8345 LP  0  0  0  0  0  0  0  0  0  0  0  0  # atno 4731 bound_to 414 
  -15.2220   17.9990   74.9653 LP  0  0  0  0  0  0  0  0  0  0  0  0  # atno 4732 bound_to 414 
  -13.3200   16.4420   62.1290 LP  0  0  0  0  0  0  0  0  0  0  0  0  # atno 4733 bound_to 1114
  -12.5036   15.3234   61.2636 LP  0  0  0  0  0  0  0  0  0  0  0  0  # atno 4734 bound_to 1114
  -12.0198   15.3914   57.7161 LP  0  0  0  0  0  0  0  0  0  0  0  0  # atno 4763 bound_to 924 
  -10.4642   14.9209   57.5567 LP  0  0  0  0  0  0  0  0  0  0  0  0  # atno 4764 bound_to 924 
  -19.8549   13.7318   63.3227 LP  0  0  0  0  0  0  0  0  0  0  0  0  # atno 4771 bound_to 1244
  -20.8142   12.4104   63.3051 LP  0  0  0  0  0  0  0  0  0  0  0  0  # atno 4772 bound_to 1244
   -6.4271   22.5439   71.3634 LP  0  0  0  0  0  0  0  0  0  0  0  0  # atno 4775 bound_to 178 
   -7.6907   22.9027   72.3336 LP  0  0  0  0  0  0  0  0  0  0  0  0  # atno 4776 bound_to 178 
   -3.1951   24.9109   72.5142 LP  0  0  0  0  0  0  0  0  0  0  0  0  # atno 4779 bound_to 171 
   -1.7473   24.1557   72.5009 LP  0  0  0  0  0  0  0  0  0  0  0  0  # atno 4780 bound_to 171 
   -7.1791   25.8081   63.0602 LP  0  0  0  0  0  0  0  0  0  0  0  0  # atno 4783 bound_to 185 
   -8.1808   26.7926   63.8933 LP  0  0  0  0  0  0  0  0  0  0  0  0  # atno 4784 bound_to 185 
   -1.9277   17.1234   72.7473 LP  0  0  0  0  0  0  0  0  0  0  0  0  # atno 4785 bound_to 346 
   -2.6812   18.5045   73.1851 LP  0  0  0  0  0  0  0  0  0  0  0  0  # atno 4786 bound_to 346 
   -2.9961   22.3003   74.9724 LP  0  0  0  0  0  0  0  0  0  0  0  0  # atno 4787 bound_to 339 
   -3.6626   20.9928   74.2561 LP  0  0  0  0  0  0  0  0  0  0  0  0  # atno 4788 bound_to 339 
   -7.1910   28.3134   65.4997 LP  0  0  0  0  0  0  0  0  0  0  0  0  # atno 4797 bound_to 154 
   -7.1507   29.8692   65.0052 LP  0  0  0  0  0  0  0  0  0  0  0  0  # atno 4798 bound_to 154 

> <Gold.Score>
     Score     S(PLP)   S(hbond)     S(cho)   S(metal)  DE(clash)   DE(tors)     intcor
     57.31     -54.25       0.99       0.99       0.00       0.00       1.48       0.07

> <Gold.PLP.Fitness>
57.3072

> <Gold.PLP.PLP>
-54.2487

> <Gold.PLP.part.hbond>
-1.0000

> <Gold.PLP.part.metal>
0.0000

> <Gold.PLP.part.buried>
-7.8961

> <Gold.PLP.part.nonpolar>
-47.7337

> <Gold.PLP.part.repulsive>
0.9526

> <Gold.PLP.ligand.clash>
0.0000

> <Gold.PLP.ligand.torsion>
1.4750

> <Gold.PLP.Chemscore.Hbond>
0.9920

> <Gold.PLP.Chemscore.CHOScore>
0.9884

> <Gold.PLP.Chemscore.Metal>
0.0000

> <Gold.Chemscore.Hbonds>
donor molecule, donor type, donor heavy atom, donor atom, acceptor molecule, acceptor atom, score
      L1  H    10    23       P1  1464  0.99
      L1  C    15    29       P1  1262  0.99

> <Gold.PLP.Chemscore.Internal.Correction>
0.0673

