unknown|prepared_Mpro-x1093|sdf|1|dock1
  -GOLD-   5 72214353D 1   1.00000     0.00000

 37 39  0  0  0  0  0  0  0  0  1 V2000
   -9.2929   11.0653   62.9717 C   0  0  0  0  0  0  0  0  0  0  0  0
  -10.2194   11.4611   63.9782 N   0  0  0  0  0  0  0  0  0  0  0  0
  -11.5781   11.5824   63.5826 C   0  0  0  0  0  0  0  0  0  0  0  0
  -12.2576   12.6482   64.4753 C   0  0  0  0  0  0  0  0  0  0  0  0
  -11.8328   12.3812   65.8586 N   0  0  0  0  0  0  0  0  0  0  0  0
  -11.1986   11.1156   66.1417 C   0  0  0  0  0  0  0  0  0  0  0  0
   -9.9461   11.0424   65.3008 C   0  0  0  0  0  0  0  0  0  0  0  0
  -12.0506   13.3510   66.8392 C   0  0  0  0  0  0  0  0  0  0  0  0
  -12.6037   14.4402   66.5257 O   0  0  0  0  0  0  0  0  0  0  0  0
  -11.6376   13.1048   68.2342 C   0  0  0  0  0  0  0  0  0  0  0  0
  -11.8285   14.2951   69.0997 C   0  0  0  0  0  0  0  0  0  0  0  0
  -11.5590   15.6223   68.8218 C   0  0  0  0  0  0  0  0  0  0  0  0
  -11.8636   16.4092   69.8566 N   0  0  0  0  0  0  0  0  0  0  0  0
  -12.3375   15.5873   70.8216 C   0  0  0  0  0  0  0  0  0  0  0  0
  -12.7777   15.9003   72.0570 N   0  0  0  0  0  0  0  0  0  0  0  0
  -13.2176   14.9309   72.8866 C   0  0  0  0  0  0  0  0  0  0  0  0
  -13.2263   13.6055   72.4908 C   0  0  0  0  0  0  0  0  0  0  0  0
  -12.7730   13.2911   71.2219 C   0  0  0  0  0  0  0  0  0  0  0  0
  -12.3271   14.2809   70.3825 C   0  0  0  0  0  0  0  0  0  0  0  0
   -8.6935   11.8925   62.5447 H   0  0  0  0  0  0  0  0  0  0  0  0
   -8.6138   10.2943   63.4137 H   0  0  0  0  0  0  0  0  0  0  0  0
   -9.8257   10.5655   62.1469 H   0  0  0  0  0  0  0  0  0  0  0  0
  -12.0769   10.5987   63.7208 H   0  0  0  0  0  0  0  0  0  0  0  0
  -11.6881   11.8610   62.5377 H   0  0  0  0  0  0  0  0  0  0  0  0
  -11.8622   13.6112   64.1511 H   0  0  0  0  0  0  0  0  0  0  0  0
  -13.3364   12.5126   64.3847 H   0  0  0  0  0  0  0  0  0  0  0  0
  -11.0120   10.9883   67.2164 H   0  0  0  0  0  0  0  0  0  0  0  0
  -11.8781   10.2929   65.7740 H   0  0  0  0  0  0  0  0  0  0  0  0
   -9.1892   11.6814   65.8276 H   0  0  0  0  0  0  0  0  0  0  0  0
   -9.5147   10.0179   65.2973 H   0  0  0  0  0  0  0  0  0  0  0  0
  -10.5656   12.7732   68.2592 H   0  0  0  0  0  0  0  0  0  0  0  0
  -12.2153   12.2252   68.6229 H   0  0  0  0  0  0  0  0  0  0  0  0
  -11.1499   15.9291   67.8646 H   0  0  0  0  0  0  0  0  0  0  0  0
  -11.7528   17.4639   69.9013 H   0  0  0  0  0  0  0  0  0  0  0  0
  -13.5760   15.1797   73.8930 H   0  0  0  0  0  0  0  0  0  0  0  0
  -13.5812   12.8138   73.1567 H   0  0  0  0  0  0  0  0  0  0  0  0
  -12.7800   12.2546   70.9127 H   0  0  0  0  0  0  0  0  0  0  0  0
  1  2  1  0  0  0  0
  2  3  1  0  0  0  0
  3  4  1  0  0  0  0
  4  5  1  0  0  0  0
  5  6  1  0  0  0  0
  6  7  1  0  0  0  0
  5  8  1  0  0  0  0
  8  9  2  0  0  0  0
  8 10  1  0  0  0  0
 10 11  1  0  0  0  0
 11 12  2  0  0  0  0
 12 13  1  0  0  0  0
 13 14  1  0  0  0  0
 14 15  2  0  0  0  0
 15 16  1  0  0  0  0
 16 17  2  0  0  0  0
 17 18  1  0  0  0  0
 18 19  2  0  0  0  0
  7  2  1  0  0  0  0
 19 11  1  0  0  0  0
 19 14  1  0  0  0  0
  1 20  1  0  0  0  0
  1 21  1  0  0  0  0
  1 22  1  0  0  0  0
  3 23  1  0  0  0  0
  3 24  1  0  0  0  0
  4 25  1  0  0  0  0
  4 26  1  0  0  0  0
  6 27  1  0  0  0  0
  6 28  1  0  0  0  0
  7 29  1  0  0  0  0
  7 30  1  0  0  0  0
 10 31  1  0  0  0  0
 10 32  1  0  0  0  0
 12 33  1  0  0  0  0
 13 34  1  0  0  0  0
 16 35  1  0  0  0  0
 17 36  1  0  0  0  0
 18 37  1  0  0  0  0
M  END
> <Gold.Version>
2022.1.0

> <Gold.Id.Protein>
6LU7|6LU7_protein|mol2

> <Gold.PLP.Fitness>
51.1679

> <Gold.PLP.PLP>
-51.6480

> <Gold.PLP.part.hbond>
-0.9950

> <Gold.PLP.part.metal>
0.0000

> <Gold.PLP.part.buried>
-8.5297

> <Gold.PLP.part.nonpolar>
-44.1795

> <Gold.PLP.part.repulsive>
0.5673

> <Gold.PLP.ligand.clash>
0.0000

> <Gold.PLP.ligand.torsion>
0.2779

> <Gold.PLP.Chemscore.Hbond>
0.0000

> <Gold.PLP.Chemscore.CHOScore>
0.0250

> <Gold.PLP.Chemscore.Metal>
0.0000

> <Gold.Chemscore.Hbonds>
donor molecule, donor type, donor heavy atom, donor atom, acceptor molecule, acceptor atom, score
      L1  C    16    35       P1  1441  0.03

> <Gold.PLP.Chemscore.Internal.Correction>
0.0006

> <Gold.Protein.RotatedTorsions>
[ 3973 1471 1470 1467 ] final  -99.23 input   60.00 | X-H torsion
[ 3372  414  413  411 ] final -112.13 input   60.00 | X-H torsion
[ 4268 1114 1113 1110 ] final -112.34 input   59.99 | X-H torsion
[ 4409  924  923  921 ] final  -52.31 input   59.99 | X-H torsion
[ 4183 1244 1243 1241 ] final   -4.69 input   59.99 | X-H torsion
[ 3800  178  177  174 ] final  123.43 input   60.00 | X-H torsion
[ 3793  171  170  167 ] final  -92.09 input   60.00 | X-H torsion
[ 3576  185  184  181 ] final   74.26 input   60.00 | X-H torsion
[ 3523  346  345  342 ] final  138.56 input   60.01 | X-H torsion
[ 3515  339  338  335 ] final   53.94 input   60.00 | X-H torsion
[ 3663  154  153  150 ] final  -51.80 input   60.00 | X-H torsion
[ 4280 1130 1129 1126 ] final  146.22 input   60.00 | X-H torsion

> <Gold.Protein.ActiveResidues>
 VAL20   THR21   CYS22   GLY23   THR24   THR25   THR26   LEU27   ASN28   PRO39  
 ARG40   HIS41   VAL42   CYS44   THR45   SER46   ASP48   MET49   LEU50   PRO52  
 TYR54   TYR118  ASN119  ILE136  GLY138  SER139  PHE140  LEU141  ASN142  GLY143 
 SER144  CYS145  GLY146  SER147  TYR161  HIS163  HIS164  MET165  GLU166  LEU167 
 PRO168  THR169  GLY170  VAL171  HIS172  ALA173  PHE181  PHE185  VAL186  ASP187 
 ARG188  GLN189  THR190  ALA191  GLN192  ALA193 

> <Gold.Protein.RotatedAtoms>
  -15.5528   17.4570   75.3324 H   0  0  0  0  0  0  0  0  0  0  0  0  # atno 3372 bound_to 414 
   -3.6069   21.6494   74.1836 H   0  0  0  0  0  0  0  0  0  0  0  0  # atno 3515 bound_to 339 
   -1.8463   17.9035   73.0371 H   0  0  0  0  0  0  0  0  0  0  0  0  # atno 3523 bound_to 346 
   -8.2873   26.7330   63.9349 H   0  0  0  0  0  0  0  0  0  0  0  0  # atno 3576 bound_to 185 
   -7.7356   28.2117   65.5221 H   0  0  0  0  0  0  0  0  0  0  0  0  # atno 3663 bound_to 154 
   -2.3289   24.8945   72.7649 H   0  0  0  0  0  0  0  0  0  0  0  0  # atno 3793 bound_to 171 
   -7.2807   23.7760   72.4957 H   0  0  0  0  0  0  0  0  0  0  0  0  # atno 3800 bound_to 178 
  -15.1525    9.1061   77.8615 H   0  0  0  0  0  0  0  0  0  0  0  0  # atno 3973 bound_to 1471
  -20.9880   12.8041   64.4486 H   0  0  0  0  0  0  0  0  0  0  0  0  # atno 4183 bound_to 1244
  -12.5038   15.3339   61.2709 H   0  0  0  0  0  0  0  0  0  0  0  0  # atno 4268 bound_to 1114
  -15.6469   18.6493   59.0207 H   0  0  0  0  0  0  0  0  0  0  0  0  # atno 4280 bound_to 1130
  -12.1751   15.4279   57.0288 H   0  0  0  0  0  0  0  0  0  0  0  0  # atno 4409 bound_to 924 
  -15.7248    7.6619   78.3460 LP  0  0  0  0  0  0  0  0  0  0  0  0  # atno 4696 bound_to 1471
  -15.1584    7.8508   76.8261 LP  0  0  0  0  0  0  0  0  0  0  0  0  # atno 4697 bound_to 1471
  -14.3577   17.1553   76.3948 LP  0  0  0  0  0  0  0  0  0  0  0  0  # atno 4731 bound_to 414 
  -14.1794   18.3277   75.2722 LP  0  0  0  0  0  0  0  0  0  0  0  0  # atno 4732 bound_to 414 
  -14.0860   15.5697   60.9730 LP  0  0  0  0  0  0  0  0  0  0  0  0  # atno 4733 bound_to 1114
  -13.3303   16.4436   62.1271 LP  0  0  0  0  0  0  0  0  0  0  0  0  # atno 4734 bound_to 1114
  -10.9532   15.0768   58.0444 LP  0  0  0  0  0  0  0  0  0  0  0  0  # atno 4763 bound_to 924 
  -10.7299   14.9802   56.4297 LP  0  0  0  0  0  0  0  0  0  0  0  0  # atno 4764 bound_to 924 
  -19.9449   13.9314   63.9109 LP  0  0  0  0  0  0  0  0  0  0  0  0  # atno 4771 bound_to 1244
  -20.4299   12.7258   62.9220 LP  0  0  0  0  0  0  0  0  0  0  0  0  # atno 4772 bound_to 1244
   -6.0513   23.3509   71.5179 LP  0  0  0  0  0  0  0  0  0  0  0  0  # atno 4775 bound_to 178 
   -7.2806   22.3105   71.7881 LP  0  0  0  0  0  0  0  0  0  0  0  0  # atno 4776 bound_to 178 
   -2.0798   23.4823   71.9957 LP  0  0  0  0  0  0  0  0  0  0  0  0  # atno 4779 bound_to 171 
   -3.5551   24.1818   71.9672 LP  0  0  0  0  0  0  0  0  0  0  0  0  # atno 4780 bound_to 171 
   -8.5077   25.1615   63.5747 LP  0  0  0  0  0  0  0  0  0  0  0  0  # atno 4783 bound_to 185 
   -7.1542   25.9325   63.0845 LP  0  0  0  0  0  0  0  0  0  0  0  0  # atno 4784 bound_to 185 
   -3.4457   18.2028   73.0162 LP  0  0  0  0  0  0  0  0  0  0  0  0  # atno 4785 bound_to 346 
   -2.8779   16.7485   72.5374 LP  0  0  0  0  0  0  0  0  0  0  0  0  # atno 4786 bound_to 346 
   -3.1483   20.4592   75.1940 LP  0  0  0  0  0  0  0  0  0  0  0  0  # atno 4787 bound_to 339 
   -2.7099   22.0033   75.4944 LP  0  0  0  0  0  0  0  0  0  0  0  0  # atno 4788 bound_to 339 
   -6.7827   29.4741   65.1393 LP  0  0  0  0  0  0  0  0  0  0  0  0  # atno 4797 bound_to 154 
   -8.4071   29.6190   65.0565 LP  0  0  0  0  0  0  0  0  0  0  0  0  # atno 4798 bound_to 154 

$$$$
