unknown|prepared_Mpro-x0395|sdf|1|dock5
  -GOLD-   5 72214353D 1   1.00000     0.00000

 26 27  0  0  0  0  0  0  0  0  1 V2000
  -12.3154   12.4124   63.8387 C   0  0  0  0  0  0  0  0  0  0  0  0
  -12.0051   12.7106   65.2754 C   0  0  0  0  0  0  0  0  0  0  0  0
  -12.2969   11.9978   66.3584 N   0  0  0  0  0  0  0  0  0  0  0  0
  -11.9508   12.4124   67.4988 N   0  0  0  0  0  0  0  0  0  0  0  0
  -11.2946   13.5621   67.6163 C   0  0  0  0  0  0  0  0  0  0  0  0
  -10.7944   14.2310   68.8739 C   0  0  0  0  0  0  0  0  0  0  0  0
  -11.9378   14.6295   69.6428 N   0  0  0  0  0  0  0  0  0  0  0  0
  -11.8665   15.9273   70.1840 C   0  0  0  0  0  0  0  0  0  0  0  0
  -11.7203   16.0138   71.6715 C   0  0  0  0  0  0  0  0  0  0  0  0
  -12.6164   15.0780   72.3922 C   0  0  0  0  0  0  0  0  0  0  0  0
  -12.9832   13.9775   71.7525 C   0  0  0  0  0  0  0  0  0  0  0  0
  -13.8052   13.1233   72.4190 F   0  0  0  0  0  0  0  0  0  0  0  0
  -12.5684   13.6223   70.3919 C   0  0  0  0  0  0  0  0  0  0  0  0
  -11.1872   14.0445   65.9805 S   0  0  0  0  0  0  0  0  0  0  0  0
  -11.6056   12.9607   63.2008 H   0  0  0  0  0  0  0  0  0  0  0  0
  -12.1358   11.3166   63.6365 H   0  0  0  0  0  0  0  0  0  0  0  0
  -13.3509   12.7139   63.6115 H   0  0  0  0  0  0  0  0  0  0  0  0
  -10.1571   13.4993   69.3737 H   0  0  0  0  0  0  0  0  0  0  0  0
  -10.2687   15.1508   68.5503 H   0  0  0  0  0  0  0  0  0  0  0  0
  -10.9599   16.4399   69.7466 H   0  0  0  0  0  0  0  0  0  0  0  0
  -12.7340   16.5508   69.8321 H   0  0  0  0  0  0  0  0  0  0  0  0
  -12.0092   17.0419   71.9748 H   0  0  0  0  0  0  0  0  0  0  0  0
  -10.6565   15.8928   71.9744 H   0  0  0  0  0  0  0  0  0  0  0  0
  -12.9251   15.3304   73.3895 H   0  0  0  0  0  0  0  0  0  0  0  0
  -11.8547   12.7512   70.4851 H   0  0  0  0  0  0  0  0  0  0  0  0
  -13.4699   13.1669   69.8848 H   0  0  0  0  0  0  0  0  0  0  0  0
  1  2  1  0  0  0  0
  2  3  2  0  0  0  0
  3  4  1  0  0  0  0
  4  5  2  0  0  0  0
  5  6  1  0  0  0  0
  6  7  1  0  0  0  0
  7  8  1  0  0  0  0
  8  9  1  0  0  0  0
  9 10  1  0  0  0  0
 10 11  2  0  0  0  0
 11 12  1  0  0  0  0
 11 13  1  0  0  0  0
  5 14  1  0  0  0  0
 14  2  1  0  0  0  0
 13  7  1  0  0  0  0
  1 15  1  0  0  0  0
  1 16  1  0  0  0  0
  1 17  1  0  0  0  0
  6 18  1  0  0  0  0
  6 19  1  0  0  0  0
  8 20  1  0  0  0  0
  8 21  1  0  0  0  0
  9 22  1  0  0  0  0
  9 23  1  0  0  0  0
 10 24  1  0  0  0  0
 13 25  1  0  0  0  0
 13 26  1  0  0  0  0
M  END
> <Gold.Version>
2022.1.0

> <Gold.Id.Protein>
6LU7|6LU7_protein|mol2

> <Gold.PLP.Fitness>
39.7467

> <Gold.PLP.PLP>
-40.3280

> <Gold.PLP.part.hbond>
-1.0000

> <Gold.PLP.part.metal>
0.0000

> <Gold.PLP.part.buried>
-6.6406

> <Gold.PLP.part.nonpolar>
-33.6252

> <Gold.PLP.part.repulsive>
0.2898

> <Gold.PLP.ligand.clash>
0.0000

> <Gold.PLP.ligand.torsion>
0.4487

> <Gold.PLP.Chemscore.Hbond>
0.0530

> <Gold.PLP.Chemscore.CHOScore>
0.0000

> <Gold.PLP.Chemscore.Metal>
0.0000

> <Gold.Chemscore.Hbonds>
donor molecule, donor type, donor heavy atom, donor atom, acceptor molecule, acceptor atom, score
      P1  H  1281  4132       L1     3  0.05

> <Gold.PLP.Chemscore.Internal.Correction>
0.1570

> <Gold.Protein.RotatedTorsions>
[ 3973 1471 1470 1467 ] final  163.18 input   60.00 | X-H torsion
[ 3372  414  413  411 ] final  151.43 input   60.00 | X-H torsion
[ 4268 1114 1113 1110 ] final -132.95 input   59.99 | X-H torsion
[ 4409  924  923  921 ] final  -97.79 input   59.99 | X-H torsion
[ 4183 1244 1243 1241 ] final  172.77 input   59.99 | X-H torsion
[ 3800  178  177  174 ] final  144.52 input   60.00 | X-H torsion
[ 3793  171  170  167 ] final  -18.97 input   60.00 | X-H torsion
[ 3576  185  184  181 ] final -149.28 input   60.00 | X-H torsion
[ 3523  346  345  342 ] final   49.84 input   60.01 | X-H torsion
[ 3515  339  338  335 ] final   57.50 input   60.00 | X-H torsion
[ 3663  154  153  150 ] final   79.20 input   60.00 | X-H torsion
[ 4280 1130 1129 1126 ] final   82.68 input   60.00 | X-H torsion

> <Gold.Protein.ActiveResidues>
 VAL20   THR21   CYS22   GLY23   THR24   THR25   THR26   LEU27   ASN28   PRO39  
 ARG40   HIS41   VAL42   CYS44   THR45   SER46   ASP48   MET49   LEU50   PRO52  
 TYR54   TYR118  ASN119  ILE136  GLY138  SER139  PHE140  LEU141  ASN142  GLY143 
 SER144  CYS145  GLY146  SER147  TYR161  HIS163  HIS164  MET165  GLU166  LEU167 
 PRO168  THR169  GLY170  VAL171  HIS172  ALA173  PHE181  PHE185  VAL186  ASP187 
 ARG188  GLN189  THR190  ALA191  GLN192  ALA193 

> <Gold.Protein.RotatedAtoms>
  -14.7052   17.0007   76.3437 H   0  0  0  0  0  0  0  0  0  0  0  0  # atno 3372 bound_to 414 
   -3.5905   21.7038   74.1958 H   0  0  0  0  0  0  0  0  0  0  0  0  # atno 3515 bound_to 339 
   -3.0273   18.4584   73.1438 H   0  0  0  0  0  0  0  0  0  0  0  0  # atno 3523 bound_to 346 
   -7.2281   25.6762   63.0492 H   0  0  0  0  0  0  0  0  0  0  0  0  # atno 3576 bound_to 185 
   -8.2835   29.7454   65.0213 H   0  0  0  0  0  0  0  0  0  0  0  0  # atno 3663 bound_to 154 
   -3.3686   24.7773   72.3786 H   0  0  0  0  0  0  0  0  0  0  0  0  # atno 3793 bound_to 171 
   -7.5070   23.5193   72.5138 H   0  0  0  0  0  0  0  0  0  0  0  0  # atno 3800 bound_to 178 
  -15.6904    7.9822   78.5184 H   0  0  0  0  0  0  0  0  0  0  0  0  # atno 3973 bound_to 1471
  -19.9383   13.4724   63.0502 H   0  0  0  0  0  0  0  0  0  0  0  0  # atno 4183 bound_to 1244
  -12.7075   15.1862   61.0498 H   0  0  0  0  0  0  0  0  0  0  0  0  # atno 4268 bound_to 1114
  -15.5472   19.4159   59.6324 H   0  0  0  0  0  0  0  0  0  0  0  0  # atno 4280 bound_to 1130
  -12.0013   15.3884   57.7301 H   0  0  0  0  0  0  0  0  0  0  0  0  # atno 4409 bound_to 924 
  -15.2984    7.5584   76.9970 LP  0  0  0  0  0  0  0  0  0  0  0  0  # atno 4696 bound_to 1471
  -15.0431    9.0863   77.5135 LP  0  0  0  0  0  0  0  0  0  0  0  0  # atno 4697 bound_to 1471
  -13.9457   18.2019   75.5511 LP  0  0  0  0  0  0  0  0  0  0  0  0  # atno 4731 bound_to 414 
  -15.4451   17.7406   75.0975 LP  0  0  0  0  0  0  0  0  0  0  0  0  # atno 4732 bound_to 414 
  -14.2051   15.8097   61.1779 LP  0  0  0  0  0  0  0  0  0  0  0  0  # atno 4733 bound_to 1114
  -13.0061   16.3523   62.1448 LP  0  0  0  0  0  0  0  0  0  0  0  0  # atno 4734 bound_to 1114
  -10.4557   14.9179   57.5361 LP  0  0  0  0  0  0  0  0  0  0  0  0  # atno 4763 bound_to 924 
  -11.4026   15.1788   56.2316 LP  0  0  0  0  0  0  0  0  0  0  0  0  # atno 4764 bound_to 924 
  -20.9788   12.3763   63.6533 LP  0  0  0  0  0  0  0  0  0  0  0  0  # atno 4771 bound_to 1244
  -20.4531   13.6078   64.5879 LP  0  0  0  0  0  0  0  0  0  0  0  0  # atno 4772 bound_to 1244
   -6.1066   23.6424   71.6941 LP  0  0  0  0  0  0  0  0  0  0  0  0  # atno 4775 bound_to 178 
   -6.9975   22.2775   71.5937 LP  0  0  0  0  0  0  0  0  0  0  0  0  # atno 4776 bound_to 178 
   -1.8089   24.3787   72.6160 LP  0  0  0  0  0  0  0  0  0  0  0  0  # atno 4779 bound_to 171 
   -2.7790   23.4035   71.7360 LP  0  0  0  0  0  0  0  0  0  0  0  0  # atno 4780 bound_to 171 
   -8.0565   26.8328   63.8390 LP  0  0  0  0  0  0  0  0  0  0  0  0  # atno 4783 bound_to 185 
   -8.6721   25.3256   63.7122 LP  0  0  0  0  0  0  0  0  0  0  0  0  # atno 4784 bound_to 185 
   -3.3366   16.9640   72.5788 LP  0  0  0  0  0  0  0  0  0  0  0  0  # atno 4785 bound_to 346 
   -1.7979   17.4286   72.8674 LP  0  0  0  0  0  0  0  0  0  0  0  0  # atno 4786 bound_to 346 
   -3.1804   20.4483   75.1464 LP  0  0  0  0  0  0  0  0  0  0  0  0  # atno 4787 bound_to 339 
   -2.6943   21.9594   75.5297 LP  0  0  0  0  0  0  0  0  0  0  0  0  # atno 4788 bound_to 339 
   -7.9135   28.2372   65.5077 LP  0  0  0  0  0  0  0  0  0  0  0  0  # atno 4797 bound_to 154 
   -6.7245   29.3113   65.1925 LP  0  0  0  0  0  0  0  0  0  0  0  0  # atno 4798 bound_to 154 

$$$$
