#       Name:                unknown
#       Creating user name   williammccorkindale
#       Creation time:       Tue Jun  7 14:55:39 2022


#       File generated by GOLD software.
#

@<TRIPOS>MOLECULE
unknown|prepared_Mpro-x0991|mol2|1|dock5
    14    13     1
SMALL
NO_CHARGES


@<TRIPOS>ATOM
      1 C1         -12.6023  16.2221  73.4208 C.3            1 RES1               0.0000
      2 C2         -12.3442  14.9047  72.7311 C.3            1 RES1               0.0000
      3 C3         -13.4719  14.5998  71.8348 C.2            1 RES1               0.0000
      4 N4         -13.6155  15.2934  70.7721 N.2            1 RES1               0.0000
      5 N5         -14.4147  13.5502  72.1143 N.pl3          1 RES1               0.0000
      6 H6         -13.1973  16.0313  74.3379 H              1 RES1               0.0000
      7 H7         -13.2153  16.9025  72.7692 H              1 RES1               0.0000
      8 H8         -11.6689  16.7891  73.6311 H              1 RES1               0.0000
      9 H9         -11.3958  14.9070  72.1551 H              1 RES1               0.0000
     10 H10        -12.3304  14.0906  73.5107 H              1 RES1               0.0000
     11 H11        -14.3716  15.1505  70.0914 H              1 RES1               0.0000
     12 H12        -14.2582  13.0146  72.9870 H              1 RES1               0.0000
     13 H13        -15.1906  13.3876  71.4366 H              1 RES1               0.0000
     14 ****       -12.9520  16.0194  70.5917 LP             1 RES1               0.0000
@<TRIPOS>BOND
    1    1    2 1     
    2    2    3 1     
    3    3    4 2     
    4    3    5 1     
    5    1    6 1     
    6    1    7 1     
    7    1    8 1     
    8    2    9 1     
    9    2   10 1     
   10    4   11 1     
   11    5   12 1     
   12    5   13 1     
   13    4   14 1     
@<TRIPOS>SUBSTRUCTURE
      1 RES1           1
@<TRIPOS>SET
LONE_PAIRS      STATIC     ATOMS    <user>   **** ""
1 14
DONOR_HYDROGENS      STATIC     ATOMS    <user>   **** ""
3 11 12 13
ATOM$BLUE        STATIC     ATOMS    COLORGROUP SYSTEM
1 14
ATOM$RED        STATIC     ATOMS    COLORGROUP SYSTEM
3 11 12 13
@<TRIPOS>COMMENT
> <Gold.Version>
2022.1.0

> <Gold.Id.Protein>
6LU7|6LU7_protein|mol2

> <Gold.Protein.RotatedTorsions>
[ 3973 1471 1470 1467 ] final  -29.53 input   60.00 | X-H torsion
[ 3372  414  413  411 ] final  169.73 input   60.00 | X-H torsion
[ 4268 1114 1113 1110 ] final  -89.63 input   59.99 | X-H torsion
[ 4409  924  923  921 ] final -125.26 input   59.99 | X-H torsion
[ 4183 1244 1243 1241 ] final   -3.85 input   59.99 | X-H torsion
[ 3800  178  177  174 ] final    0.04 input   60.00 | X-H torsion
[ 3793  171  170  167 ] final   49.23 input   60.00 | X-H torsion
[ 3576  185  184  181 ] final -109.71 input   60.00 | X-H torsion
[ 3523  346  345  342 ] final  -48.98 input   60.01 | X-H torsion
[ 3515  339  338  335 ] final  -27.56 input   60.00 | X-H torsion
[ 3663  154  153  150 ] final -126.39 input   60.00 | X-H torsion
[ 4280 1130 1129 1126 ] final -132.15 input   60.00 | X-H torsion

> <Gold.Protein.ActiveResidues>
 VAL20   THR21   CYS22   GLY23   THR24   THR25   THR26   LEU27   ASN28   PRO39  
 ARG40   HIS41   VAL42   CYS44   THR45   SER46   ASP48   MET49   LEU50   PRO52  
 TYR54   TYR118  ASN119  ILE136  GLY138  SER139  PHE140  LEU141  ASN142  GLY143 
 SER144  CYS145  GLY146  SER147  TYR161  HIS163  HIS164  MET165  GLU166  LEU167 
 PRO168  THR169  GLY170  VAL171  HIS172  ALA173  PHE181  PHE185  VAL186  ASP187 
 ARG188  GLN189  THR190  ALA191  GLN192  ALA193 

> <Gold.Protein.RotatedAtoms>
  -14.9747   16.9503   76.2279 H   0  0  0  0  0  0  0  0  0  0  0  0  # atno 3372 bound_to 414 
   -3.4724   20.5371   74.6718 H   0  0  0  0  0  0  0  0  0  0  0  0  # atno 3515 bound_to 339 
   -3.5462   17.2264   72.6592 H   0  0  0  0  0  0  0  0  0  0  0  0  # atno 3523 bound_to 346 
   -7.6258   25.1872   63.1138 H   0  0  0  0  0  0  0  0  0  0  0  0  # atno 3576 bound_to 185 
   -6.7691   28.7838   65.3618 H   0  0  0  0  0  0  0  0  0  0  0  0  # atno 3663 bound_to 154 
   -3.4354   23.8882   71.8247 H   0  0  0  0  0  0  0  0  0  0  0  0  # atno 3793 bound_to 171 
   -6.0596   23.3003   71.4956 H   0  0  0  0  0  0  0  0  0  0  0  0  # atno 3800 bound_to 178 
  -14.9726    8.6212   76.9249 H   0  0  0  0  0  0  0  0  0  0  0  0  # atno 3973 bound_to 1471
  -20.9920   12.7940   64.4402 H   0  0  0  0  0  0  0  0  0  0  0  0  # atno 4183 bound_to 1244
  -12.3986   15.5621   61.5406 H   0  0  0  0  0  0  0  0  0  0  0  0  # atno 4268 bound_to 1114
  -16.2402   19.0480   58.0274 H   0  0  0  0  0  0  0  0  0  0  0  0  # atno 4280 bound_to 1130
  -11.6704   15.2941   58.0117 H   0  0  0  0  0  0  0  0  0  0  0  0  # atno 4409 bound_to 924 
  -15.4742    8.7025   78.4708 LP  0  0  0  0  0  0  0  0  0  0  0  0  # atno 4696 bound_to 1471
  -15.5901    7.2987   77.6445 LP  0  0  0  0  0  0  0  0  0  0  0  0  # atno 4697 bound_to 1471
  -13.8495   18.0385   75.7833 LP  0  0  0  0  0  0  0  0  0  0  0  0  # atno 4731 bound_to 414 
  -15.2698   17.9547   74.9820 LP  0  0  0  0  0  0  0  0  0  0  0  0  # atno 4732 bound_to 414 
  -13.8401   15.3376   60.8198 LP  0  0  0  0  0  0  0  0  0  0  0  0  # atno 4733 bound_to 1114
  -13.6822   16.4459   62.0087 LP  0  0  0  0  0  0  0  0  0  0  0  0  # atno 4734 bound_to 1114
  -10.3886   14.8897   57.0943 LP  0  0  0  0  0  0  0  0  0  0  0  0  # atno 4763 bound_to 924 
  -11.8030   15.3020   56.3899 LP  0  0  0  0  0  0  0  0  0  0  0  0  # atno 4764 bound_to 924 
  -19.9497   13.9319   63.9239 LP  0  0  0  0  0  0  0  0  0  0  0  0  # atno 4771 bound_to 1244
  -20.4211   12.7354   62.9175 LP  0  0  0  0  0  0  0  0  0  0  0  0  # atno 4772 bound_to 1244
   -7.3219   22.3266   71.8219 LP  0  0  0  0  0  0  0  0  0  0  0  0  # atno 4775 bound_to 178 
   -7.2398   23.8138   72.4913 LP  0  0  0  0  0  0  0  0  0  0  0  0  # atno 4776 bound_to 178 
   -2.6592   24.9966   72.7285 LP  0  0  0  0  0  0  0  0  0  0  0  0  # atno 4779 bound_to 171 
   -1.8613   23.6811   72.1814 LP  0  0  0  0  0  0  0  0  0  0  0  0  # atno 4780 bound_to 171 
   -7.5073   26.7577   63.5228 LP  0  0  0  0  0  0  0  0  0  0  0  0  # atno 4783 bound_to 185 
   -8.8207   25.8932   63.9633 LP  0  0  0  0  0  0  0  0  0  0  0  0  # atno 4784 bound_to 185 
   -1.9244   17.1283   72.7493 LP  0  0  0  0  0  0  0  0  0  0  0  0  # atno 4785 bound_to 346 
   -2.6874   18.5049   73.1848 LP  0  0  0  0  0  0  0  0  0  0  0  0  # atno 4786 bound_to 346 
   -2.6415   21.4375   75.7427 LP  0  0  0  0  0  0  0  0  0  0  0  0  # atno 4787 bound_to 339 
   -3.3522   22.1452   74.4540 LP  0  0  0  0  0  0  0  0  0  0  0  0  # atno 4788 bound_to 339 
   -7.7870   29.9860   64.9536 LP  0  0  0  0  0  0  0  0  0  0  0  0  # atno 4797 bound_to 154 
   -8.3761   28.5310   65.4036 LP  0  0  0  0  0  0  0  0  0  0  0  0  # atno 4798 bound_to 154 

> <Gold.Score>
     Score     S(PLP)   S(hbond)     S(cho)   S(metal)  DE(clash)   DE(tors)     intcor
     21.41     -18.65       0.99       0.00       0.00       0.00       0.11       0.00

> <Gold.PLP.Fitness>
21.4088

> <Gold.PLP.PLP>
-18.6542

> <Gold.PLP.part.hbond>
-1.0000

> <Gold.PLP.part.metal>
0.0000

> <Gold.PLP.part.buried>
-3.6620

> <Gold.PLP.part.nonpolar>
-15.1055

> <Gold.PLP.part.repulsive>
0.1112

> <Gold.PLP.ligand.clash>
0.0000

> <Gold.PLP.ligand.torsion>
0.1096

> <Gold.PLP.Chemscore.Hbond>
0.9913

> <Gold.PLP.Chemscore.CHOScore>
0.0000

> <Gold.PLP.Chemscore.Metal>
0.0000

> <Gold.Chemscore.Hbonds>
donor molecule, donor type, donor heavy atom, donor atom, acceptor molecule, acceptor atom, score
      L1  H     4    11       P1  1266  0.99

> <Gold.PLP.Chemscore.Internal.Correction>
0.0000

