#       Name:                /Users/williammccorkindale/ml_physics/smi2wyck/notebooks/docking/mpro_fragments/prepared_Mpro-x0397.mol2
#       Creating user name   williammccorkindale
#       Creation time:       Tue Jun  7 14:55:43 2022


#       File generated by GOLD software.
#

@<TRIPOS>MOLECULE
/Users/williammccorkindale/ml_physics/smi2wyck/notebooks/docking/mpro_fragments/prepared_Mpro-x0397.mol2
    35    36     1
SMALL
NO_CHARGES


@<TRIPOS>ATOM
      1 C1           0.5745  -2.7846   0.6998 C.3            1 RES1               0.0000
      2 N2           0.0544  -1.4401   0.8344 N.am           1 RES1               0.0000
      3 C3           0.9308  -0.3867   1.2777 C.3            1 RES1               0.0000
      4 C4           1.6096   0.2838   0.1348 C.2            1 RES1               0.0000
      5 C5           2.8116  -0.0161  -0.4718 C.2            1 RES1               0.0000
      6 C6           3.0089   0.9110  -1.5019 C.2            1 RES1               0.0000
      7 C7           4.1765   0.9654  -2.4205 C.3            1 RES1               0.0000
      8 O8           1.9592   1.7010  -1.4754 O.3            1 RES1               0.0000
      9 N9           1.1367   1.3519  -0.5321 N.2            1 RES1               0.0000
     10 C10         -1.3137  -1.2293   0.5175 C.2            1 RES1               0.0000
     11 O11         -2.0601  -2.1627   0.1337 O.2            1 RES1               0.0000
     12 N12         -1.9286   0.0565   0.6147 N.am           1 RES1               0.0000
     13 C13         -3.3082   0.3045   0.3024 C.3            1 RES1               0.0000
     14 C14         -3.9713   1.3402   1.2220 C.3            1 RES1               0.0000
     15 C15         -3.6803   1.6897  -0.2276 C.3            1 RES1               0.0000
     16 H16         -0.0441  -3.3982  -0.0114 H              1 RES1               0.0000
     17 H17          0.4637  -3.3170   1.6848 H              1 RES1               0.0000
     18 H18          1.6018  -2.8239   0.3357 H              1 RES1               0.0000
     19 H19          0.3596   0.3282   1.9037 H              1 RES1               0.0000
     20 H20          1.6924  -0.8379   1.9738 H              1 RES1               0.0000
     21 H21          3.4641  -0.8241  -0.1862 H              1 RES1               0.0000
     22 H22          3.9253   1.3868  -3.4007 H              1 RES1               0.0000
     23 H23          4.5940  -0.0599  -2.5952 H              1 RES1               0.0000
     24 H24          5.0074   1.5492  -1.9441 H              1 RES1               0.0000
     25 H25         -1.3484   0.8583   0.9282 H              1 RES1               0.0000
     26 H26         -3.9414  -0.5479  -0.0354 H              1 RES1               0.0000
     27 H27         -3.3531   1.8117   2.0057 H              1 RES1               0.0000
     28 H28         -5.0304   1.1649   1.4994 H              1 RES1               0.0000
     29 H29         -4.5685   1.7773  -0.8751 H              1 RES1               0.0000
     30 H30         -2.8225   2.3478  -0.3915 H              1 RES1               0.0000
     31 ****         1.4881   1.6484  -2.3559 LP             1 RES1               0.0000
     32 ****         2.2612   2.6407  -1.3146 LP             1 RES1               0.0000
     33 ****         0.2726   1.8130  -0.3301 LP             1 RES1               0.0000
     34 ****        -1.6954  -3.0894   0.0431 LP             1 RES1               0.0000
     35 ****        -3.0194  -1.9796  -0.0814 LP             1 RES1               0.0000
@<TRIPOS>BOND
    1    1    2 1     
    2    2    3 1     
    3    3    4 1     
    4    4    5 1     
    5    5    6 2     
    6    6    7 1     
    7    6    8 1     
    8    8    9 1     
    9    2   10 am    
   10   10   11 2     
   11   10   12 am    
   12   12   13 1     
   13   13   14 1     
   14   14   15 1     
   15    4    9 2     
   16   15   13 1     
   17    1   16 1     
   18    1   17 1     
   19    1   18 1     
   20    3   19 1     
   21    3   20 1     
   22    5   21 1     
   23    7   22 1     
   24    7   23 1     
   25    7   24 1     
   26   12   25 1     
   27   13   26 1     
   28   14   27 1     
   29   14   28 1     
   30   15   29 1     
   31   15   30 1     
   32    8   31 1     
   33    8   32 1     
   34    9   33 1     
   35   11   34 1     
   36   11   35 1     
@<TRIPOS>SUBSTRUCTURE
      1 RES1           1
@<TRIPOS>SET
LONE_PAIRS      STATIC     ATOMS    <user>   **** ""
5 31 32 33 34 35
DONOR_HYDROGENS      STATIC     ATOMS    <user>   **** ""
1 25
ATOM$BLUE        STATIC     ATOMS    COLORGROUP SYSTEM
5 31 32 33 34 35
ATOM$RED        STATIC     ATOMS    COLORGROUP SYSTEM
1 25
