#       Name:                unknown
#       Creating user name   williammccorkindale
#       Creation time:       Tue Jun  7 14:55:38 2022


#       File generated by GOLD software.
#

@<TRIPOS>MOLECULE
unknown|prepared_Mpro-x1077|mol2|1|dock3
    32    33     1
SMALL
NO_CHARGES


@<TRIPOS>ATOM
      1 N1         -12.3967   6.7657  71.2250 N.1            1 RES1               0.0000
      2 C2         -12.4890   7.9196  71.2183 C.1            1 RES1               0.0000
      3 C3         -12.5852   9.3650  71.2115 C.ar           1 RES1               0.0000
      4 C4         -13.3966  10.0345  72.1039 C.ar           1 RES1               0.0000
      5 C5         -13.4885  11.4176  72.0972 C.ar           1 RES1               0.0000
      6 C6         -12.7709  12.1784  71.1965 C.ar           1 RES1               0.0000
      7 C7         -11.9712  11.4752  70.3206 C.ar           1 RES1               0.0000
      8 N8         -11.8893  10.1121  70.3372 N.ar           1 RES1               0.0000
      9 N9         -12.8711  13.5833  71.1938 N.pl3          1 RES1               0.0000
     10 C10        -11.9898  14.2448  70.2157 C.3            1 RES1               0.0000
     11 C11        -12.0227  15.7389  70.3328 C.3            1 RES1               0.0000
     12 C12        -11.9493  16.2108  71.7767 C.3            1 RES1               0.0000
     13 O13        -11.7026  15.1971  72.6700 O.3            1 RES1               0.0000
     14 C14        -12.9174  14.7702  73.2558 C.3            1 RES1               0.0000
     15 C15        -13.7563  14.2718  72.0704 C.3            1 RES1               0.0000
     16 H16        -13.9579   9.4266  72.8093 H              1 RES1               0.0000
     17 H17        -14.1401  11.9258  72.8171 H              1 RES1               0.0000
     18 H18        -11.4039  12.0552  69.6085 H              1 RES1               0.0000
     19 H19        -12.3898  13.9701  69.2188 H              1 RES1               0.0000
     20 H20        -10.9370  13.9340  70.3698 H              1 RES1               0.0000
     21 H21        -12.9857  16.0781  69.8682 H              1 RES1               0.0000
     22 H22        -11.1800  16.1476  69.7780 H              1 RES1               0.0000
     23 H23        -12.8536  16.7512  72.0956 H              1 RES1               0.0000
     24 H24        -11.1064  16.9482  71.8838 H              1 RES1               0.0000
     25 H25        -12.7541  13.9527  73.9647 H              1 RES1               0.0000
     26 H26        -13.4191  15.6527  73.7108 H              1 RES1               0.0000
     27 H27        -14.6633  13.7659  72.3735 H              1 RES1               0.0000
     28 H28        -14.1151  15.2325  71.5866 H              1 RES1               0.0000
     29 ****       -12.3170   5.7689  71.2308 LP             1 RES1               0.0000
     30 ****       -11.2923   9.6551  69.6778 LP             1 RES1               0.0000
     31 ****       -11.0868  15.5273  73.3854 LP             1 RES1               0.0000
     32 ****       -11.2765  14.4292  72.1918 LP             1 RES1               0.0000
@<TRIPOS>BOND
    1    1    2 3     
    2    2    3 1     
    3    3    4 ar    
    4    4    5 ar    
    5    5    6 ar    
    6    6    7 ar    
    7    7    8 ar    
    8    6    9 1     
    9    9   10 1     
   10   10   11 1     
   11   11   12 1     
   12   12   13 1     
   13   13   14 1     
   14   14   15 1     
   15    3    8 ar    
   16   15    9 1     
   17    4   16 1     
   18    5   17 1     
   19    7   18 1     
   20   10   19 1     
   21   10   20 1     
   22   11   21 1     
   23   11   22 1     
   24   12   23 1     
   25   12   24 1     
   26   14   25 1     
   27   14   26 1     
   28   15   27 1     
   29   15   28 1     
   30    1   29 1     
   31    8   30 1     
   32   13   31 1     
   33   13   32 1     
@<TRIPOS>SUBSTRUCTURE
      1 RES1           1
@<TRIPOS>SET
LONE_PAIRS      STATIC     ATOMS    <user>   **** ""
4 29 30 31 32
ATOM$BLUE        STATIC     ATOMS    COLORGROUP SYSTEM
4 29 30 31 32
@<TRIPOS>COMMENT
> <Gold.Version>
2022.1.0

> <Gold.Id.Protein>
6LU7|6LU7_protein|mol2

> <Gold.Protein.RotatedTorsions>
[ 3973 1471 1470 1467 ] final   93.50 input   60.00 | X-H torsion
[ 3372  414  413  411 ] final -148.78 input   60.00 | X-H torsion
[ 4268 1114 1113 1110 ] final   47.20 input   59.99 | X-H torsion
[ 4409  924  923  921 ] final -147.58 input   59.99 | X-H torsion
[ 4183 1244 1243 1241 ] final -117.06 input   59.99 | X-H torsion
[ 3800  178  177  174 ] final -144.38 input   60.00 | X-H torsion
[ 3793  171  170  167 ] final  -96.24 input   60.00 | X-H torsion
[ 3576  185  184  181 ] final   90.72 input   60.00 | X-H torsion
[ 3523  346  345  342 ] final   53.79 input   60.01 | X-H torsion
[ 3515  339  338  335 ] final -130.58 input   60.00 | X-H torsion
[ 3663  154  153  150 ] final  -50.52 input   60.00 | X-H torsion
[ 4280 1130 1129 1126 ] final  -75.86 input   60.00 | X-H torsion

> <Gold.Protein.ActiveResidues>
 VAL20   THR21   CYS22   GLY23   THR24   THR25   THR26   LEU27   ASN28   PRO39  
 ARG40   HIS41   VAL42   CYS44   THR45   SER46   ASP48   MET49   LEU50   PRO52  
 TYR54   TYR118  ASN119  ILE136  GLY138  SER139  PHE140  LEU141  ASN142  GLY143 
 SER144  CYS145  GLY146  SER147  TYR161  HIS163  HIS164  MET165  GLU166  LEU167 
 PRO168  THR169  GLY170  VAL171  HIS172  ALA173  PHE181  PHE185  VAL186  ASP187 
 ARG188  GLN189  THR190  ALA191  GLN192  ALA193 

> <Gold.Protein.RotatedAtoms>
  -15.4451   17.0934   75.7826 H   0  0  0  0  0  0  0  0  0  0  0  0  # atno 3372 bound_to 414 
   -2.6894   21.1643   75.7402 H   0  0  0  0  0  0  0  0  0  0  0  0  # atno 3515 bound_to 339 
   -2.9657   18.4747   73.1545 H   0  0  0  0  0  0  0  0  0  0  0  0  # atno 3523 bound_to 346 
   -8.0549   26.8259   63.8389 H   0  0  0  0  0  0  0  0  0  0  0  0  # atno 3576 bound_to 185 
   -7.7564   28.2138   65.5210 H   0  0  0  0  0  0  0  0  0  0  0  0  # atno 3663 bound_to 154 
   -2.2686   24.8637   72.7647 H   0  0  0  0  0  0  0  0  0  0  0  0  # atno 3793 bound_to 171 
   -7.5613   22.5278   72.0673 H   0  0  0  0  0  0  0  0  0  0  0  0  # atno 3800 bound_to 178 
  -15.6011    7.3082   77.6927 H   0  0  0  0  0  0  0  0  0  0  0  0  # atno 3973 bound_to 1471
  -19.9974   13.9261   64.0243 H   0  0  0  0  0  0  0  0  0  0  0  0  # atno 4183 bound_to 1244
  -13.9032   16.3778   61.8598 H   0  0  0  0  0  0  0  0  0  0  0  0  # atno 4268 bound_to 1114
  -16.4320   19.9074   58.0962 H   0  0  0  0  0  0  0  0  0  0  0  0  # atno 4280 bound_to 1130
  -11.3338   15.1946   58.1018 H   0  0  0  0  0  0  0  0  0  0  0  0  # atno 4409 bound_to 924 
  -14.9762    8.5812   76.8947 LP  0  0  0  0  0  0  0  0  0  0  0  0  # atno 4696 bound_to 1471
  -15.4551    8.7424   78.4475 LP  0  0  0  0  0  0  0  0  0  0  0  0  # atno 4697 bound_to 1471
  -13.9500   17.5533   76.2312 LP  0  0  0  0  0  0  0  0  0  0  0  0  # atno 4731 bound_to 414 
  -14.6956   18.2959   74.9825 LP  0  0  0  0  0  0  0  0  0  0  0  0  # atno 4732 bound_to 414 
  -12.4054   15.7536   61.7378 LP  0  0  0  0  0  0  0  0  0  0  0  0  # atno 4733 bound_to 1114
  -13.6016   15.2084   60.7692 LP  0  0  0  0  0  0  0  0  0  0  0  0  # atno 4734 bound_to 1114
  -10.4843   14.9121   56.7429 LP  0  0  0  0  0  0  0  0  0  0  0  0  # atno 4763 bound_to 924 
  -12.0462   15.3799   56.6505 LP  0  0  0  0  0  0  0  0  0  0  0  0  # atno 4764 bound_to 924 
  -20.3501   12.8161   62.8879 LP  0  0  0  0  0  0  0  0  0  0  0  0  # atno 4771 bound_to 1244
  -21.0224   12.7111   64.3723 LP  0  0  0  0  0  0  0  0  0  0  0  0  # atno 4772 bound_to 1244
   -6.9039   23.9867   72.3634 LP  0  0  0  0  0  0  0  0  0  0  0  0  # atno 4775 bound_to 178 
   -6.1455   22.9318   71.3740 LP  0  0  0  0  0  0  0  0  0  0  0  0  # atno 4776 bound_to 178 
   -2.1326   23.4542   71.9628 LP  0  0  0  0  0  0  0  0  0  0  0  0  # atno 4779 bound_to 171 
   -3.5631   24.2409   72.0003 LP  0  0  0  0  0  0  0  0  0  0  0  0  # atno 4780 bound_to 171 
   -8.6721   25.3256   63.7122 LP  0  0  0  0  0  0  0  0  0  0  0  0  # atno 4783 bound_to 185 
   -7.2238   25.6749   63.0437 LP  0  0  0  0  0  0  0  0  0  0  0  0  # atno 4784 bound_to 185 
   -3.3841   17.0068   72.5904 LP  0  0  0  0  0  0  0  0  0  0  0  0  # atno 4785 bound_to 346 
   -1.8123   17.3693   72.8449 LP  0  0  0  0  0  0  0  0  0  0  0  0  # atno 4786 bound_to 346 
   -3.2035   22.2643   74.6569 LP  0  0  0  0  0  0  0  0  0  0  0  0  # atno 4787 bound_to 339 
   -3.5786   20.6868   74.4638 LP  0  0  0  0  0  0  0  0  0  0  0  0  # atno 4788 bound_to 339 
   -6.7743   29.4558   65.1454 LP  0  0  0  0  0  0  0  0  0  0  0  0  # atno 4797 bound_to 154 
   -8.3947   29.6352   65.0516 LP  0  0  0  0  0  0  0  0  0  0  0  0  # atno 4798 bound_to 154 

> <Gold.Score>
     Score     S(PLP)   S(hbond)     S(cho)   S(metal)  DE(clash)   DE(tors)     intcor
     45.11     -45.12       0.00       0.00       0.00       0.00       0.00       0.00

> <Gold.PLP.Fitness>
45.1117

> <Gold.PLP.PLP>
-45.1194

> <Gold.PLP.part.hbond>
0.0000

> <Gold.PLP.part.metal>
0.0000

> <Gold.PLP.part.buried>
-6.1170

> <Gold.PLP.part.nonpolar>
-40.5886

> <Gold.PLP.part.repulsive>
0.3488

> <Gold.PLP.ligand.clash>
0.0000

> <Gold.PLP.ligand.torsion>
0.0039

> <Gold.PLP.Chemscore.Hbond>
0.0000

> <Gold.PLP.Chemscore.CHOScore>
0.0000

> <Gold.PLP.Chemscore.Metal>
0.0000

> <Gold.PLP.Chemscore.Internal.Correction>
0.0001

