#       Name:                xxxx
#       Creating user name   williammccorkindale
#       Creation time:       Tue Jun  7 11:03:36 2022


#       File generated by GOLD software.
#

@<TRIPOS>MOLECULE
xxxx|x0072|mol2|1|dock1
    26    26     1
SMALL
NO_CHARGES


@<TRIPOS>ATOM
      1 C01         -7.7962  16.9463  66.8718 C.3            1 LIG1101            0.0000
      2 S02         -9.5180  16.3858  66.7583 S.o2           1 LIG1101            0.0000
      3 O03         -9.6093  14.9328  66.5867 O.2            1 LIG1101            0.0000
      4 O04        -10.1377  16.8217  65.5184 O.2            1 LIG1101            0.0000
      5 N05        -10.4042  16.9353  68.1063 N.pl3          1 LIG1101            0.0000
      6 C06        -10.6004  16.0018  69.1853 C.3            1 LIG1101            0.0000
      7 C07        -12.0071  15.4298  69.2925 C.3            1 LIG1101            0.0000
      8 C08        -12.2567  15.2879  70.7860 C.ar           1 LIG1101            0.0000
      9 C09        -11.7299  16.1951  71.6959 C.ar           1 LIG1101            0.0000
     10 C10        -12.0017  16.0395  73.0449 C.ar           1 LIG1101            0.0000
     11 C11        -12.8152  15.0039  73.4771 C.ar           1 LIG1101            0.0000
     12 C12        -13.3493  14.1070  72.5613 C.ar           1 LIG1101            0.0000
     13 C13        -13.0686  14.2578  71.2180 C.ar           1 LIG1101            0.0000
     14 H1          -7.2656  16.6766  65.9598 H              1 LIG1101            0.0000
     15 H2          -7.7740  18.0277  66.9983 H              1 LIG1101            0.0000
     16 H3          -7.3153  16.4711  67.7256 H              1 LIG1101            0.0000
     17 H4         -10.7771  17.8784  68.1470 H              1 LIG1101            0.0000
     18 H5         -10.3709  16.5120  70.1195 H              1 LIG1101            0.0000
     19 H6          -9.9083  15.1728  69.0449 H              1 LIG1101            0.0000
     20 H7         -12.0654  14.4601  68.8002 H              1 LIG1101            0.0000
     21 H8         -12.7321  16.1082  68.8453 H              1 LIG1101            0.0000
     22 H9         -11.1090  17.0211  71.3519 H              1 LIG1101            0.0000
     23 H10        -11.5749  16.7327  73.7683 H              1 LIG1101            0.0000
     24 H11        -13.0363  14.8932  74.5377 H              1 LIG1101            0.0000
     25 H12        -13.9851  13.2905  72.9003 H              1 LIG1101            0.0000
     26 H13        -13.4897  13.5607  70.4952 H              1 LIG1101            0.0000
@<TRIPOS>BOND
    1    1    2 1     
    2    2    3 2     
    3    2    4 2     
    4    2    5 1     
    5    5    6 1     
    6    6    7 1     
    7    7    8 1     
    8    8    9 ar    
    9    9   10 ar    
   10   10   11 ar    
   11   11   12 ar    
   12    8   13 ar    
   13   12   13 ar    
   14    1   14 1     
   15    1   15 1     
   16    1   16 1     
   17    5   17 1     
   18    6   18 1     
   19    6   19 1     
   20    7   20 1     
   21    7   21 1     
   22    9   22 1     
   23   10   23 1     
   24   11   24 1     
   25   12   25 1     
   26   13   26 1     
@<TRIPOS>SUBSTRUCTURE
      1 LIG1101        1
@<TRIPOS>SET
LONE_PAIRS      STATIC     ATOMS    <user>   **** ""
2 3 4
DONOR_HYDROGENS      STATIC     ATOMS    <user>   **** ""
1 17
ATOM$BLUE        STATIC     ATOMS    COLORGROUP SYSTEM
2 3 4
ATOM$RED        STATIC     ATOMS    COLORGROUP SYSTEM
1 17
@<TRIPOS>COMMENT
> <Gold.Version>
2022.1.0

> <Gold.Id.Protein>
6LU7|6LU7_protein|mol2

> <Gold.Protein.RotatedTorsions>
[ 3973 1471 1470 1467 ] final  -84.26 input   60.00 | X-H torsion
[ 3372  414  413  411 ] final  -13.26 input   60.00 | X-H torsion
[ 4268 1114 1113 1110 ] final   35.71 input   59.99 | X-H torsion
[ 4409  924  923  921 ] final  113.29 input   59.99 | X-H torsion
[ 4183 1244 1243 1241 ] final  140.38 input   59.99 | X-H torsion
[ 3800  178  177  174 ] final  -30.97 input   60.00 | X-H torsion
[ 3793  171  170  167 ] final  -21.74 input   60.00 | X-H torsion
[ 3576  185  184  181 ] final -115.27 input   60.00 | X-H torsion
[ 3523  346  345  342 ] final  -27.42 input   60.01 | X-H torsion
[ 3515  339  338  335 ] final  -73.59 input   60.00 | X-H torsion
[ 3663  154  153  150 ] final -140.81 input   60.00 | X-H torsion
[ 4280 1130 1129 1126 ] final   74.06 input   60.00 | X-H torsion

> <Gold.Protein.ActiveResidues>
 VAL20   THR21   CYS22   GLY23   THR24   THR25   THR26   LEU27   ASN28   PRO39  
 ARG40   HIS41   VAL42   CYS44   THR45   SER46   ASP48   MET49   LEU50   PRO52  
 TYR54   TYR118  ASN119  ILE136  GLY138  SER139  PHE140  LEU141  ASN142  GLY143 
 SER144  CYS145  GLY146  SER147  TYR161  HIS163  HIS164  MET165  GLU166  LEU167 
 PRO168  THR169  GLY170  VAL171  HIS172  ALA173  PHE181  PHE185  VAL186  ASP187 
 ARG188  GLN189  THR190  ALA191  GLN192  ALA193 

> <Gold.Protein.RotatedAtoms>
  -14.4667   18.3407   75.0823 H   0  0  0  0  0  0  0  0  0  0  0  0  # atno 3372 bound_to 414 
   -3.0828   20.5002   75.2906 H   0  0  0  0  0  0  0  0  0  0  0  0  # atno 3515 bound_to 339 
   -3.6493   17.5439   72.7654 H   0  0  0  0  0  0  0  0  0  0  0  0  # atno 3523 bound_to 346 
   -7.5546   25.2387   63.0914 H   0  0  0  0  0  0  0  0  0  0  0  0  # atno 3576 bound_to 185 
   -6.7125   29.0016   65.2937 H   0  0  0  0  0  0  0  0  0  0  0  0  # atno 3663 bound_to 154 
   -3.3408   24.8036   72.4028 H   0  0  0  0  0  0  0  0  0  0  0  0  # atno 3793 bound_to 171 
   -6.2000   22.8393   71.3605 H   0  0  0  0  0  0  0  0  0  0  0  0  # atno 3800 bound_to 178 
  -15.0751    9.1036   77.6301 H   0  0  0  0  0  0  0  0  0  0  0  0  # atno 3973 bound_to 1471
  -20.1804   13.0447   62.8739 H   0  0  0  0  0  0  0  0  0  0  0  0  # atno 4183 bound_to 1244
  -13.7546   16.4281   61.9622 H   0  0  0  0  0  0  0  0  0  0  0  0  # atno 4268 bound_to 1114
  -15.5752   19.5528   59.6486 H   0  0  0  0  0  0  0  0  0  0  0  0  # atno 4280 bound_to 1130
  -10.3965   14.8940   57.0713 H   0  0  0  0  0  0  0  0  0  0  0  0  # atno 4409 bound_to 924 
  -15.7111    7.8688   78.4779 LP  0  0  0  0  0  0  0  0  0  0  0  0  # atno 4696 bound_to 1471
  -15.2500    7.6465   76.9272 LP  0  0  0  0  0  0  0  0  0  0  0  0  # atno 4697 bound_to 1471
  -15.5372   17.2229   75.5849 LP  0  0  0  0  0  0  0  0  0  0  0  0  # atno 4731 bound_to 414 
  -14.0937   17.3701   76.3340 LP  0  0  0  0  0  0  0  0  0  0  0  0  # atno 4732 bound_to 414 
  -12.3882   15.6194   61.6064 LP  0  0  0  0  0  0  0  0  0  0  0  0  # atno 4733 bound_to 1114
  -13.7684   15.2919   60.7975 LP  0  0  0  0  0  0  0  0  0  0  0  0  # atno 4734 bound_to 1114
  -11.8216   15.3079   56.4036 LP  0  0  0  0  0  0  0  0  0  0  0  0  # atno 4763 bound_to 924 
  -11.6530   15.2868   58.0277 LP  0  0  0  0  0  0  0  0  0  0  0  0  # atno 4764 bound_to 924 
  -21.0582   12.5386   64.1472 LP  0  0  0  0  0  0  0  0  0  0  0  0  # atno 4771 bound_to 1244
  -20.1299   13.8763   64.2717 LP  0  0  0  0  0  0  0  0  0  0  0  0  # atno 4772 bound_to 1244
   -7.6106   22.5965   72.1347 LP  0  0  0  0  0  0  0  0  0  0  0  0  # atno 4775 bound_to 178 
   -6.8097   24.0082   72.3145 LP  0  0  0  0  0  0  0  0  0  0  0  0  # atno 4776 bound_to 178 
   -1.7932   24.3400   72.5976 LP  0  0  0  0  0  0  0  0  0  0  0  0  # atno 4779 bound_to 171 
   -2.8225   23.4156   71.7300 LP  0  0  0  0  0  0  0  0  0  0  0  0  # atno 4780 bound_to 171 
   -7.5764   26.7936   63.5706 LP  0  0  0  0  0  0  0  0  0  0  0  0  # atno 4783 bound_to 185 
   -8.8233   25.8054   63.9382 LP  0  0  0  0  0  0  0  0  0  0  0  0  # atno 4784 bound_to 185 
   -2.1636   16.8910   72.6450 LP  0  0  0  0  0  0  0  0  0  0  0  0  # atno 4785 bound_to 346 
   -2.3445   18.4225   73.1822 LP  0  0  0  0  0  0  0  0  0  0  0  0  # atno 4786 bound_to 346 
   -2.7486   22.0881   75.4127 LP  0  0  0  0  0  0  0  0  0  0  0  0  # atno 4787 bound_to 339 
   -3.6374   21.5317   74.1609 LP  0  0  0  0  0  0  0  0  0  0  0  0  # atno 4788 bound_to 339 
   -8.0145   29.9221   64.9688 LP  0  0  0  0  0  0  0  0  0  0  0  0  # atno 4797 bound_to 154 
   -8.2057   28.3755   65.4570 LP  0  0  0  0  0  0  0  0  0  0  0  0  # atno 4798 bound_to 154 

> <Gold.Score>
     Score     S(PLP)   S(hbond)     S(cho)   S(metal)  DE(clash)   DE(tors)     intcor
     40.42     -39.01       1.00       0.00       0.00       0.00       1.31       1.03

> <Gold.PLP.Fitness>
40.4196

> <Gold.PLP.PLP>
-39.0057

> <Gold.PLP.part.hbond>
-1.0000

> <Gold.PLP.part.metal>
0.0000

> <Gold.PLP.part.buried>
-5.6224

> <Gold.PLP.part.nonpolar>
-32.9604

> <Gold.PLP.part.repulsive>
0.1121

> <Gold.PLP.ligand.clash>
0.0000

> <Gold.PLP.ligand.torsion>
1.3068

> <Gold.PLP.Chemscore.Hbond>
1.0000

> <Gold.PLP.Chemscore.CHOScore>
0.0000

> <Gold.PLP.Chemscore.Metal>
0.0000

> <Gold.Chemscore.Hbonds>
donor molecule, donor type, donor heavy atom, donor atom, acceptor molecule, acceptor atom, score
      P1  H  1105  4261       L1     4  1.00

> <Gold.PLP.Chemscore.Internal.Correction>
1.0275

