#       Name:                unknown
#       Creating user name   williammccorkindale
#       Creation time:       Tue Jun  7 14:55:36 2022


#       File generated by GOLD software.
#

@<TRIPOS>MOLECULE
unknown|prepared_Mpro-x0195|mol2|1|dock4
    30    31     1
SMALL
NO_CHARGES


@<TRIPOS>ATOM
      1 C1         -14.2339  13.0850  72.3999 C.3            1 RES1               0.0000
      2 N2         -13.1490  14.0198  72.3861 N.pl3          1 RES1               0.0000
      3 C3         -12.8094  14.7136  73.6265 C.3            1 RES1               0.0000
      4 C4         -11.7793  15.7918  73.3845 C.3            1 RES1               0.0000
      5 C5         -12.0037  16.4956  72.0758 C.3            1 RES1               0.0000
      6 C6         -11.8208  15.5035  70.9860 C.ar           1 RES1               0.0000
      7 C7         -11.1223  15.7443  69.8438 C.ar           1 RES1               0.0000
      8 C8         -11.0208  14.7466  68.8979 C.ar           1 RES1               0.0000
      9 C9         -11.6105  13.5143  69.0850 C.ar           1 RES1               0.0000
     10 C10        -12.3149  13.2758  70.2400 C.ar           1 RES1               0.0000
     11 C11        -12.4180  14.2648  71.1825 C.ar           1 RES1               0.0000
     12 S12        -11.4947  12.2439  67.9056 S.o2           1 RES1               0.0000
     13 O13        -10.0760  11.8087  67.7534 O.2            1 RES1               0.0000
     14 O14        -12.2839  11.0365  68.3684 O.2            1 RES1               0.0000
     15 N15        -12.1281  12.7710  66.3911 N.3            1 RES1               0.0000
     16 H16        -15.0721  13.5413  72.9675 H              1 RES1               0.0000
     17 H17        -13.9558  12.1263  72.9202 H              1 RES1               0.0000
     18 H18        -14.6241  12.8407  71.3957 H              1 RES1               0.0000
     19 H19        -12.4047  14.0035  74.3748 H              1 RES1               0.0000
     20 H20        -13.6942  15.2022  74.0775 H              1 RES1               0.0000
     21 H21        -11.7946  16.5195  74.2024 H              1 RES1               0.0000
     22 H22        -10.7803  15.3204  73.3630 H              1 RES1               0.0000
     23 H23        -11.2996  17.3446  72.0065 H              1 RES1               0.0000
     24 H24        -13.0645  16.8217  72.0458 H              1 RES1               0.0000
     25 H25        -10.6703  16.7186  69.7230 H              1 RES1               0.0000
     26 H26        -10.4657  14.9482  67.9980 H              1 RES1               0.0000
     27 H27        -12.8031  12.3262  70.4455 H              1 RES1               0.0000
     28 H28        -12.5912  13.6809  66.4600 H              1 RES1               0.0000
     29 H29        -12.8327  12.0605  66.0954 H              1 RES1               0.0000
     30 ****       -11.3775  12.8671  65.7373 LP             1 RES1               0.0000
@<TRIPOS>BOND
    1    1    2 1     
    2    2    3 1     
    3    3    4 1     
    4    4    5 1     
    5    5    6 1     
    6    6    7 ar    
    7    7    8 ar    
    8    8    9 ar    
    9    9   10 ar    
   10   10   11 ar    
   11    9   12 1     
   12   12   13 2     
   13   12   14 2     
   14   12   15 1     
   15   11    2 1     
   16    6   11 ar    
   17    1   16 1     
   18    1   17 1     
   19    1   18 1     
   20    3   19 1     
   21    3   20 1     
   22    4   21 1     
   23    4   22 1     
   24    5   23 1     
   25    5   24 1     
   26    7   25 1     
   27    8   26 1     
   28   10   27 1     
   29   15   28 1     
   30   15   29 1     
   31   15   30 1     
@<TRIPOS>SUBSTRUCTURE
      1 RES1           1
@<TRIPOS>SET
LONE_PAIRS      STATIC     ATOMS    <user>   **** ""
3 13 14 30
DONOR_HYDROGENS      STATIC     ATOMS    <user>   **** ""
2 28 29
ATOM$BLUE        STATIC     ATOMS    COLORGROUP SYSTEM
3 13 14 30
ATOM$RED        STATIC     ATOMS    COLORGROUP SYSTEM
2 28 29
@<TRIPOS>COMMENT
> <Gold.Version>
2022.1.0

> <Gold.Id.Protein>
6LU7|6LU7_protein|mol2

> <Gold.Protein.RotatedTorsions>
[ 3973 1471 1470 1467 ] final  141.76 input   60.00 | X-H torsion
[ 3372  414  413  411 ] final  -88.79 input   60.00 | X-H torsion
[ 4268 1114 1113 1110 ] final -138.28 input   59.99 | X-H torsion
[ 4409  924  923  921 ] final  159.42 input   59.99 | X-H torsion
[ 4183 1244 1243 1241 ] final   87.25 input   59.99 | X-H torsion
[ 3800  178  177  174 ] final   57.25 input   60.00 | X-H torsion
[ 3793  171  170  167 ] final  119.41 input   60.00 | X-H torsion
[ 3576  185  184  181 ] final -161.84 input   60.00 | X-H torsion
[ 3523  346  345  342 ] final  -47.22 input   60.01 | X-H torsion
[ 3515  339  338  335 ] final  -47.96 input   60.00 | X-H torsion
[ 3663  154  153  150 ] final -136.84 input   60.00 | X-H torsion
[ 4280 1130 1129 1126 ] final  -50.96 input   60.00 | X-H torsion

> <Gold.Protein.ActiveResidues>
 VAL20   THR21   CYS22   GLY23   THR24   THR25   THR26   LEU27   ASN28   PRO39  
 ARG40   HIS41   VAL42   CYS44   THR45   SER46   ASP48   MET49   LEU50   PRO52  
 TYR54   TYR118  ASN119  ILE136  GLY138  SER139  PHE140  LEU141  ASN142  GLY143 
 SER144  CYS145  GLY146  SER147  TYR161  HIS163  HIS164  MET165  GLU166  LEU167 
 PRO168  THR169  GLY170  VAL171  HIS172  ALA173  PHE181  PHE185  VAL186  ASP187 
 ARG188  GLN189  THR190  ALA191  GLN192  ALA193 

> <Gold.Protein.RotatedAtoms>
  -15.4425   17.7388   75.1048 H   0  0  0  0  0  0  0  0  0  0  0  0  # atno 3372 bound_to 414 
   -3.3106   20.4480   74.9472 H   0  0  0  0  0  0  0  0  0  0  0  0  # atno 3515 bound_to 339 
   -3.5593   17.2509   72.6670 H   0  0  0  0  0  0  0  0  0  0  0  0  # atno 3523 bound_to 346 
   -7.1694   25.8704   63.0765 H   0  0  0  0  0  0  0  0  0  0  0  0  # atno 3576 bound_to 185 
   -6.7223   28.9405   65.3130 H   0  0  0  0  0  0  0  0  0  0  0  0  # atno 3663 bound_to 154 
   -2.4883   23.3773   71.8058 H   0  0  0  0  0  0  0  0  0  0  0  0  # atno 3793 bound_to 171 
   -6.3927   23.9472   72.0191 H   0  0  0  0  0  0  0  0  0  0  0  0  # atno 3800 bound_to 178 
  -15.7199    7.6778   78.3522 H   0  0  0  0  0  0  0  0  0  0  0  0  # atno 3973 bound_to 1471
  -20.7167   12.4749   63.1719 H   0  0  0  0  0  0  0  0  0  0  0  0  # atno 4183 bound_to 1244
  -12.7739   15.1599   61.0001 H   0  0  0  0  0  0  0  0  0  0  0  0  # atno 4268 bound_to 1114
  -16.3840   20.2122   58.3564 H   0  0  0  0  0  0  0  0  0  0  0  0  # atno 4280 bound_to 1130
  -10.6004   14.9681   57.7720 H   0  0  0  0  0  0  0  0  0  0  0  0  # atno 4409 bound_to 924 
  -15.1642    7.8364   76.8310 LP  0  0  0  0  0  0  0  0  0  0  0  0  # atno 4696 bound_to 1471
  -15.1476    9.1149   77.8468 LP  0  0  0  0  0  0  0  0  0  0  0  0  # atno 4697 bound_to 1471
  -14.7009   16.9956   76.3480 LP  0  0  0  0  0  0  0  0  0  0  0  0  # atno 4731 bound_to 414 
  -13.9474   18.2036   75.5483 LP  0  0  0  0  0  0  0  0  0  0  0  0  # atno 4732 bound_to 414 
  -14.2174   15.8724   61.2379 LP  0  0  0  0  0  0  0  0  0  0  0  0  # atno 4733 bound_to 1114
  -12.9270   16.3161   62.1349 LP  0  0  0  0  0  0  0  0  0  0  0  0  # atno 4734 bound_to 1114
  -11.1326   15.0978   56.2397 LP  0  0  0  0  0  0  0  0  0  0  0  0  # atno 4763 bound_to 924 
  -12.1366   15.4223   57.4859 LP  0  0  0  0  0  0  0  0  0  0  0  0  # atno 4764 bound_to 924 
  -20.7953   13.1692   64.6414 LP  0  0  0  0  0  0  0  0  0  0  0  0  # atno 4771 bound_to 1244
  -19.8527   13.8196   63.4773 LP  0  0  0  0  0  0  0  0  0  0  0  0  # atno 4772 bound_to 1244
   -6.5393   22.4535   71.3903 LP  0  0  0  0  0  0  0  0  0  0  0  0  # atno 4775 bound_to 178 
   -7.6870   23.0355   72.3956 LP  0  0  0  0  0  0  0  0  0  0  0  0  # atno 4776 bound_to 178 
   -3.5141   24.5726   72.2142 LP  0  0  0  0  0  0  0  0  0  0  0  0  # atno 4779 bound_to 171 
   -1.9604   24.6196   72.7146 LP  0  0  0  0  0  0  0  0  0  0  0  0  # atno 4780 bound_to 171 
   -8.2366   26.7677   63.9156 LP  0  0  0  0  0  0  0  0  0  0  0  0  # atno 4783 bound_to 185 
   -8.5511   25.1951   63.6081 LP  0  0  0  0  0  0  0  0  0  0  0  0  # atno 4784 bound_to 185 
   -1.9401   17.1059   72.7400 LP  0  0  0  0  0  0  0  0  0  0  0  0  # atno 4785 bound_to 346 
   -2.6586   18.5027   73.1863 LP  0  0  0  0  0  0  0  0  0  0  0  0  # atno 4786 bound_to 346 
   -2.6494   21.7582   75.6501 LP  0  0  0  0  0  0  0  0  0  0  0  0  # atno 4787 bound_to 339 
   -3.5071   21.9142   74.2693 LP  0  0  0  0  0  0  0  0  0  0  0  0  # atno 4788 bound_to 339 
   -7.9537   29.9451   64.9629 LP  0  0  0  0  0  0  0  0  0  0  0  0  # atno 4797 bound_to 154 
   -8.2566   28.4141   65.4436 LP  0  0  0  0  0  0  0  0  0  0  0  0  # atno 4798 bound_to 154 

> <Gold.Score>
     Score     S(PLP)   S(hbond)     S(cho)   S(metal)  DE(clash)   DE(tors)     intcor
     44.15     -41.25       1.00       0.00       0.00       0.00       1.15       2.19

> <Gold.PLP.Fitness>
44.1481

> <Gold.PLP.PLP>
-41.2536

> <Gold.PLP.part.hbond>
-1.0000

> <Gold.PLP.part.metal>
0.0000

> <Gold.PLP.part.buried>
-5.9987

> <Gold.PLP.part.nonpolar>
-35.1189

> <Gold.PLP.part.repulsive>
0.1486

> <Gold.PLP.ligand.clash>
0.0000

> <Gold.PLP.ligand.torsion>
1.1489

> <Gold.PLP.Chemscore.Hbond>
1.0000

> <Gold.PLP.Chemscore.CHOScore>
0.0000

> <Gold.PLP.Chemscore.Metal>
0.0000

> <Gold.Chemscore.Hbonds>
donor molecule, donor type, donor heavy atom, donor atom, acceptor molecule, acceptor atom, score
      P1  H  1281  4132       L1    14  1.00

> <Gold.PLP.Chemscore.Internal.Correction>
2.1923

