#       Name:                unknown
#       Creating user name   williammccorkindale
#       Creation time:       Tue Jun  7 14:55:38 2022


#       File generated by GOLD software.
#

@<TRIPOS>MOLECULE
unknown|prepared_Mpro-x1077|mol2|1|dock5
    32    33     1
SMALL
NO_CHARGES


@<TRIPOS>ATOM
      1 N1         -12.6245  15.2986  74.0317 N.1            1 RES1               0.0000
      2 C2         -12.4013  15.2005  72.9000 C.1            1 RES1               0.0000
      3 C3         -12.1202  15.0586  71.4861 C.ar           1 RES1               0.0000
      4 C4         -11.5511  16.0848  70.7609 C.ar           1 RES1               0.0000
      5 C5         -11.2820  15.9489  69.4079 C.ar           1 RES1               0.0000
      6 C6         -11.5736  14.7802  68.7340 C.ar           1 RES1               0.0000
      7 C7         -12.1412  13.7770  69.4908 C.ar           1 RES1               0.0000
      8 N8         -12.4014  13.9234  70.8235 N.ar           1 RES1               0.0000
      9 N9         -11.2998  14.6499  67.3586 N.pl3          1 RES1               0.0000
     10 C10        -11.0999  15.9336  66.6635 C.3            1 RES1               0.0000
     11 C11        -10.9450  15.7653  65.1820 C.3            1 RES1               0.0000
     12 C12        -11.9644  14.8004  64.5965 C.3            1 RES1               0.0000
     13 O13        -12.9212  14.4042  65.4986 O.3            1 RES1               0.0000
     14 C14        -12.5782  13.1410  66.0352 C.3            1 RES1               0.0000
     15 C15        -11.2282  13.3761  66.7275 C.3            1 RES1               0.0000
     16 H16        -11.3252  17.0014  71.3005 H              1 RES1               0.0000
     17 H17        -10.8289  16.7791  68.8544 H              1 RES1               0.0000
     18 H18        -12.3766  12.8564  68.9787 H              1 RES1               0.0000
     19 H19        -10.1512  16.3457  67.0628 H              1 RES1               0.0000
     20 H20        -11.9716  16.6000  66.8212 H              1 RES1               0.0000
     21 H21         -9.9071  15.3771  65.0079 H              1 RES1               0.0000
     22 H22        -11.0599  16.7394  64.7097 H              1 RES1               0.0000
     23 H23        -11.5004  13.9045  64.1566 H              1 RES1               0.0000
     24 H24        -12.5075  15.3032  63.7492 H              1 RES1               0.0000
     25 H25        -13.3175  12.8038  66.7683 H              1 RES1               0.0000
     26 H26        -12.4363  12.4270  65.1941 H              1 RES1               0.0000
     27 H27        -10.9027  12.5337  67.3233 H              1 RES1               0.0000
     28 H28        -10.4971  13.4107  65.8614 H              1 RES1               0.0000
     29 ****       -12.8172  15.3833  75.0093 LP             1 RES1               0.0000
     30 ****       -12.8145  13.1615  71.3224 LP             1 RES1               0.0000
     31 ****       -13.8063  14.3400  65.0375 LP             1 RES1               0.0000
     32 ****       -12.9786  15.0748  66.2382 LP             1 RES1               0.0000
@<TRIPOS>BOND
    1    1    2 3     
    2    2    3 1     
    3    3    4 ar    
    4    4    5 ar    
    5    5    6 ar    
    6    6    7 ar    
    7    7    8 ar    
    8    6    9 1     
    9    9   10 1     
   10   10   11 1     
   11   11   12 1     
   12   12   13 1     
   13   13   14 1     
   14   14   15 1     
   15    3    8 ar    
   16   15    9 1     
   17    4   16 1     
   18    5   17 1     
   19    7   18 1     
   20   10   19 1     
   21   10   20 1     
   22   11   21 1     
   23   11   22 1     
   24   12   23 1     
   25   12   24 1     
   26   14   25 1     
   27   14   26 1     
   28   15   27 1     
   29   15   28 1     
   30    1   29 1     
   31    8   30 1     
   32   13   31 1     
   33   13   32 1     
@<TRIPOS>SUBSTRUCTURE
      1 RES1           1
@<TRIPOS>SET
LONE_PAIRS      STATIC     ATOMS    <user>   **** ""
4 29 30 31 32
ATOM$BLUE        STATIC     ATOMS    COLORGROUP SYSTEM
4 29 30 31 32
@<TRIPOS>COMMENT
> <Gold.Version>
2022.1.0

> <Gold.Id.Protein>
6LU7|6LU7_protein|mol2

> <Gold.Protein.RotatedTorsions>
[ 3973 1471 1470 1467 ] final  -81.12 input   60.00 | X-H torsion
[ 3372  414  413  411 ] final   69.82 input   60.00 | X-H torsion
[ 4268 1114 1113 1110 ] final  135.19 input   59.99 | X-H torsion
[ 4409  924  923  921 ] final  121.08 input   59.99 | X-H torsion
[ 4183 1244 1243 1241 ] final  179.85 input   59.99 | X-H torsion
[ 3800  178  177  174 ] final  136.28 input   60.00 | X-H torsion
[ 3793  171  170  167 ] final  101.79 input   60.00 | X-H torsion
[ 3576  185  184  181 ] final   11.39 input   60.00 | X-H torsion
[ 3523  346  345  342 ] final  127.13 input   60.01 | X-H torsion
[ 3515  339  338  335 ] final  132.11 input   60.00 | X-H torsion
[ 3663  154  153  150 ] final -167.40 input   60.00 | X-H torsion
[ 4280 1130 1129 1126 ] final   49.26 input   60.00 | X-H torsion

> <Gold.Protein.ActiveResidues>
 VAL20   THR21   CYS22   GLY23   THR24   THR25   THR26   LEU27   ASN28   PRO39  
 ARG40   HIS41   VAL42   CYS44   THR45   SER46   ASP48   MET49   LEU50   PRO52  
 TYR54   TYR118  ASN119  ILE136  GLY138  SER139  PHE140  LEU141  ASN142  GLY143 
 SER144  CYS145  GLY146  SER147  TYR161  HIS163  HIS164  MET165  GLU166  LEU167 
 PRO168  THR169  GLY170  VAL171  HIS172  ALA173  PHE181  PHE185  VAL186  ASP187 
 ARG188  GLN189  THR190  ALA191  GLN192  ALA193 

> <Gold.Protein.RotatedAtoms>
  -13.8497   17.8145   76.0227 H   0  0  0  0  0  0  0  0  0  0  0  0  # atno 3372 bound_to 414 
   -3.0036   22.2949   74.9664 H   0  0  0  0  0  0  0  0  0  0  0  0  # atno 3515 bound_to 339 
   -1.9282   18.0631   73.0881 H   0  0  0  0  0  0  0  0  0  0  0  0  # atno 3523 bound_to 346 
   -8.8123   25.9103   63.9668 H   0  0  0  0  0  0  0  0  0  0  0  0  # atno 3576 bound_to 185 
   -6.7618   29.4089   65.1629 H   0  0  0  0  0  0  0  0  0  0  0  0  # atno 3663 bound_to 154 
   -2.7655   23.4072   71.7395 H   0  0  0  0  0  0  0  0  0  0  0  0  # atno 3793 bound_to 171 
   -7.4273   23.6275   72.5161 H   0  0  0  0  0  0  0  0  0  0  0  0  # atno 3800 bound_to 178 
  -15.0610    9.0953   77.5815 H   0  0  0  0  0  0  0  0  0  0  0  0  # atno 3973 bound_to 1471
  -19.9051   13.5570   63.1217 H   0  0  0  0  0  0  0  0  0  0  0  0  # atno 4183 bound_to 1244
  -14.0108   15.4909   60.9147 H   0  0  0  0  0  0  0  0  0  0  0  0  # atno 4268 bound_to 1114
  -15.7031   19.9292   59.5894 H   0  0  0  0  0  0  0  0  0  0  0  0  # atno 4280 bound_to 1130
  -10.3916   14.8949   57.1983 H   0  0  0  0  0  0  0  0  0  0  0  0  # atno 4409 bound_to 924 
  -15.7050    7.9156   78.4989 LP  0  0  0  0  0  0  0  0  0  0  0  0  # atno 4696 bound_to 1471
  -15.2703    7.6081   76.9552 LP  0  0  0  0  0  0  0  0  0  0  0  0  # atno 4697 bound_to 1471
  -15.0117   18.1530   74.9349 LP  0  0  0  0  0  0  0  0  0  0  0  0  # atno 4731 bound_to 414 
  -15.2406   16.9699   76.0370 LP  0  0  0  0  0  0  0  0  0  0  0  0  # atno 4732 bound_to 414 
  -13.4502   16.4561   62.0988 LP  0  0  0  0  0  0  0  0  0  0  0  0  # atno 4733 bound_to 1114
  -12.4484   15.3990   61.3600 LP  0  0  0  0  0  0  0  0  0  0  0  0  # atno 4734 bound_to 1114
  -11.7179   15.2755   56.3358 LP  0  0  0  0  0  0  0  0  0  0  0  0  # atno 4763 bound_to 924 
  -11.7616   15.3183   57.9676 LP  0  0  0  0  0  0  0  0  0  0  0  0  # atno 4764 bound_to 924 
  -20.9378   12.3726   63.5444 LP  0  0  0  0  0  0  0  0  0  0  0  0  # atno 4771 bound_to 1244
  -20.5275   13.5263   64.6249 LP  0  0  0  0  0  0  0  0  0  0  0  0  # atno 4772 bound_to 1244
   -6.0721   23.5345   71.6200 LP  0  0  0  0  0  0  0  0  0  0  0  0  # atno 4775 bound_to 178 
   -7.1122   22.2765   71.6654 LP  0  0  0  0  0  0  0  0  0  0  0  0  # atno 4776 bound_to 178 
   -3.3816   24.7728   72.3746 LP  0  0  0  0  0  0  0  0  0  0  0  0  # atno 4779 bound_to 171 
   -1.8136   24.3893   72.6210 LP  0  0  0  0  0  0  0  0  0  0  0  0  # atno 4780 bound_to 171 
   -7.6390   25.1729   63.1138 LP  0  0  0  0  0  0  0  0  0  0  0  0  # atno 4783 bound_to 185 
   -7.4941   26.7496   63.5133 LP  0  0  0  0  0  0  0  0  0  0  0  0  # atno 4784 bound_to 185 
   -3.5501   18.0587   72.9561 LP  0  0  0  0  0  0  0  0  0  0  0  0  # atno 4785 bound_to 346 
   -2.6911   16.7319   72.5461 LP  0  0  0  0  0  0  0  0  0  0  0  0  # atno 4786 bound_to 346 
   -3.6616   20.9851   74.2596 LP  0  0  0  0  0  0  0  0  0  0  0  0  # atno 4787 bound_to 339 
   -2.8042   20.8273   75.6404 LP  0  0  0  0  0  0  0  0  0  0  0  0  # atno 4788 bound_to 339 
   -8.3627   29.6736   65.0401 LP  0  0  0  0  0  0  0  0  0  0  0  0  # atno 4797 bound_to 154 
   -7.8079   28.2139   65.5175 LP  0  0  0  0  0  0  0  0  0  0  0  0  # atno 4798 bound_to 154 

> <Gold.Score>
     Score     S(PLP)   S(hbond)     S(cho)   S(metal)  DE(clash)   DE(tors)     intcor
     36.64     -36.93       0.00       0.00       0.00       0.00       0.15       0.00

> <Gold.PLP.Fitness>
36.6388

> <Gold.PLP.PLP>
-36.9293

> <Gold.PLP.part.hbond>
0.0000

> <Gold.PLP.part.metal>
0.0000

> <Gold.PLP.part.buried>
-7.5455

> <Gold.PLP.part.nonpolar>
-30.3467

> <Gold.PLP.part.repulsive>
0.4656

> <Gold.PLP.ligand.clash>
0.0000

> <Gold.PLP.ligand.torsion>
0.1452

> <Gold.PLP.Chemscore.Hbond>
0.0000

> <Gold.PLP.Chemscore.CHOScore>
0.0000

> <Gold.PLP.Chemscore.Metal>
0.0000

> <Gold.PLP.Chemscore.Internal.Correction>
0.0000

