#       Name:                /Users/williammccorkindale/ml_physics/smi2wyck/notebooks/docking/mpro_fragments/prepared_Mpro-x0387.mol2
#       Creating user name   williammccorkindale
#       Creation time:       Tue Jun  7 14:55:42 2022


#       File generated by GOLD software.
#

@<TRIPOS>MOLECULE
/Users/williammccorkindale/ml_physics/smi2wyck/notebooks/docking/mpro_fragments/prepared_Mpro-x0387.mol2
    31    32     1
SMALL
NO_CHARGES


@<TRIPOS>ATOM
      1 O1          -3.8512  -0.0227  -0.1253 O.3            1 RES1               0.0000
      2 C2          -2.7278   0.7979  -0.0520 C.3            1 RES1               0.0000
      3 C3          -1.7576   0.3444  -1.1044 C.3            1 RES1               0.0000
      4 C4          -0.3212   0.5038  -0.7236 C.3            1 RES1               0.0000
      5 N5           0.0432   0.1130   0.5948 N.3            1 RES1               0.0000
      6 C6           1.0176  -0.9317   0.6400 C.3            1 RES1               0.0000
      7 C7           2.3358  -0.5731  -0.0031 C.2            1 RES1               0.0000
      8 C8           2.7637   0.6643  -0.2511 C.2            1 RES1               0.0000
      9 C9           3.9742   0.8287  -0.8414 C.2            1 RES1               0.0000
     10 S10          4.5157  -0.7934  -1.0487 S.3            1 RES1               0.0000
     11 C11          3.1746  -1.6048  -0.3736 C.2            1 RES1               0.0000
     12 C12         -1.1256  -0.4120   1.2754 C.3            1 RES1               0.0000
     13 C13         -2.1511   0.6957   1.3401 C.3            1 RES1               0.0000
     14 H14         -3.6157  -0.9385  -0.4800 H              1 RES1               0.0000
     15 H15         -3.0772   1.8383  -0.2030 H              1 RES1               0.0000
     16 H16         -1.9431  -0.7105  -1.3908 H              1 RES1               0.0000
     17 H17         -1.9493   0.9544  -2.0113 H              1 RES1               0.0000
     18 H18         -0.0315   1.5879  -0.8649 H              1 RES1               0.0000
     19 H19          0.3170  -0.0540  -1.4397 H              1 RES1               0.0000
     20 H20          1.2096  -1.2572   1.6627 H              1 RES1               0.0000
     21 H21          0.5621  -1.8191   0.1106 H              1 RES1               0.0000
     22 H22          2.1770   1.5705   0.0064 H              1 RES1               0.0000
     23 H23          4.4927   1.7513  -1.1228 H              1 RES1               0.0000
     24 H24          3.0395  -2.6915  -0.2719 H              1 RES1               0.0000
     25 H25         -1.5879  -1.2437   0.7034 H              1 RES1               0.0000
     26 H26         -0.9219  -0.7254   2.3110 H              1 RES1               0.0000
     27 H27         -1.6080   1.6269   1.5852 H              1 RES1               0.0000
     28 H28         -2.9536   0.5004   2.0783 H              1 RES1               0.0000
     29 ****        -4.5232   0.3991  -0.7340 LP             1 RES1               0.0000
     30 ****        -4.2441  -0.1190   0.7892 LP             1 RES1               0.0000
     31 ****         0.4241   0.9331   1.0219 LP             1 RES1               0.0000
@<TRIPOS>BOND
    1    1    2 1     
    2    2    3 1     
    3    3    4 1     
    4    4    5 1     
    5    5    6 1     
    6    6    7 1     
    7    7    8 1     
    8    8    9 2     
    9    9   10 1     
   10   10   11 1     
   11    5   12 1     
   12   12   13 1     
   13   13    2 1     
   14    7   11 2     
   15    1   14 1     
   16    2   15 1     
   17    3   16 1     
   18    3   17 1     
   19    4   18 1     
   20    4   19 1     
   21    6   20 1     
   22    6   21 1     
   23    8   22 1     
   24    9   23 1     
   25   11   24 1     
   26   12   25 1     
   27   12   26 1     
   28   13   27 1     
   29   13   28 1     
   30    1   29 1     
   31    1   30 1     
   32    5   31 1     
@<TRIPOS>SUBSTRUCTURE
      1 RES1           1
@<TRIPOS>SET
LONE_PAIRS      STATIC     ATOMS    <user>   **** ""
3 29 30 31
DONOR_HYDROGENS      STATIC     ATOMS    <user>   **** ""
1 14
ATOM$BLUE        STATIC     ATOMS    COLORGROUP SYSTEM
3 29 30 31
ATOM$RED        STATIC     ATOMS    COLORGROUP SYSTEM
1 14
