@<TRIPOS>MOLECULE
C:6LU7
    96    98     6     0     1
SMALL
NO_CHARGES
****
Generated from the CSD

@<TRIPOS>ATOM
     1 C4     -10.4207   3.4199  72.4489   C.2       1 02J1   0.0000
     2 C5      -9.9197   2.8569  73.6440   C.2       1 02J1   0.0000
     3 C6      -9.3407   1.4580  73.8080   C.3       1 02J1   0.0000
     4 O1     -10.0436   3.7549  74.5770   O.3       1 02J1   0.0000
     5 N2     -10.5806   4.8609  74.1160   N.2       1 02J1   0.0000
     6 C3     -10.8437   4.7379  72.8120   C.2       1 02J1   0.0000
     7 C41    -11.4707   5.7979  71.8929   C.2       1 02J1   0.0000
     8 O42    -11.0578   5.9429  70.7949   O.2       1 02J1   0.0000
     9 H1634  -10.4735   2.9530  71.4665   H         1 02J1   0.0000
    10 H1635   -8.4753   1.3446  73.1566   H         1 02J1   0.0000
    11 H1636   -9.0376   1.3096  74.8434   H         1 02J1   0.0000
    12 H1637  -10.0951   0.7193  73.5412   H         1 02J1   0.0000
    13 N      -12.5787   6.6249  72.3759   N.am      2 ALA2   0.0000
    14 CA     -13.1617   7.6248  71.4969   C.3       2 ALA2   0.0000
    15 C      -12.1107   8.7498  71.2429   C.2       2 ALA2   0.0000
    16 O      -11.4617   9.1588  72.1269   O.2       2 ALA2   0.0000
    17 CB     -14.3926   8.2178  72.1339   C.3       2 ALA2   0.0000
    18 H145   -12.9367   6.5006  73.3175   H         2 ALA2   0.0000
    19 H146   -13.4319   7.1609  70.5495   H         2 ALA2   0.0000
    20 H147   -14.1224   8.6861  73.0792   H         2 ALA2   0.0000
    21 H148   -14.8217   8.9652  71.4682   H         2 ALA2   0.0000
    22 H149   -15.1230   7.4305  72.3146   H         2 ALA2   0.0000
    23 N      -11.9388   9.2808  69.9129   N.am      3 VAL3   0.0000
    24 CA     -10.9509  10.3358  69.6679   C.3       3 VAL3   0.0000
    25 C      -11.6589  11.6058  69.2749   C.2       3 VAL3   0.0000
    26 O      -12.3769  11.6168  68.3298   O.2       3 VAL3   0.0000
    27 CB      -9.9999   9.8948  68.5168   C.3       3 VAL3   0.0000
    28 CG1     -9.1260  11.0858  68.0138   C.3       3 VAL3   0.0000
    29 CG2     -9.1119   8.6868  68.9569   C.3       3 VAL3   0.0000
    30 H150   -12.5015   8.9243  69.1471   H         3 VAL3   0.0000
    31 H151   -10.3706  10.5081  70.5732   H         3 VAL3   0.0000
    32 H152   -10.6193   9.5642  67.6844   H         3 VAL3   0.0000
    33 H153    -8.5211  11.4648  68.8362   H         3 VAL3   0.0000
    34 H154    -8.4742  10.7441  67.2111   H         3 VAL3   0.0000
    35 H155    -9.7729  11.8795  67.6431   H         3 VAL3   0.0000
    36 H156    -9.7499   7.8458  69.2246   H         3 VAL3   0.0000
    37 H157    -8.4577   8.3990  68.1353   H         3 VAL3   0.0000
    38 H158    -8.5093   8.9737  69.8174   H         3 VAL3   0.0000
    39 N      -11.4758  12.6777  70.0459   N.am      4 LEU4   0.0000
    40 CA     -12.1658  13.9627  69.7479   C.3       4 LEU4   0.0000
    41 C      -11.7999  14.4537  68.3428   C.2       4 LEU4   0.0000
    42 O      -10.6020  14.4417  68.0378   O.2       4 LEU4   0.0000
    43 CB     -11.7908  14.9947  70.8129   C.3       4 LEU4   0.0000
    44 CG     -12.5617  14.8757  72.1239   C.3       4 LEU4   0.0000
    45 CD1    -12.4656  16.1617  72.9270   C.3       4 LEU4   0.0000
    46 CD2    -14.0127  14.5137  71.8629   C.3       4 LEU4   0.0000
    47 H159   -10.8568  12.6169  70.8480   H         4 LEU4   0.0000
    48 H160   -13.2414  13.7969  69.7886   H         4 LEU4   0.0000
    49 H161   -11.9738  15.9864  70.4019   H         4 LEU4   0.0000
    50 H162   -10.7301  14.8831  71.0331   H         4 LEU4   0.0000
    51 H163   -12.1125  14.0754  72.7101   H         4 LEU4   0.0000
    52 H164   -12.8842  16.9834  72.3478   H         4 LEU4   0.0000
    53 H165   -13.0227  16.0518  73.8562   H         4 LEU4   0.0000
    54 H166   -11.4212  16.3716  73.1525   H         4 LEU4   0.0000
    55 H167   -14.0603  13.5602  71.3391   H         4 LEU4   0.0000
    56 H168   -14.5431  14.4341  72.8107   H         4 LEU4   0.0000
    57 H169   -14.4755  15.2871  71.2518   H         4 LEU4   0.0000
    58 C19    -11.8280  15.4907  65.8798   C.3       5 PJE5   0.0000
    59 C20    -12.4180  16.8897  65.7008   C.2       5 PJE5   0.0000
    60 C21    -11.6630  17.9476  65.9038   C.2       5 PJE5   0.0000
    61 C22    -10.2041  17.8196  66.3488   C.2       5 PJE5   0.0000
    62 C25    -12.4331  14.5937  64.8077   C.3       5 PJE5   0.0000
    63 C26    -11.8311  13.1987  64.8397   C.3       5 PJE5   0.0000
    64 C27    -10.3642  13.2407  64.5737   C.3       5 PJE5   0.0000
    65 C28    -10.1062  11.8918  63.8867   C.3       5 PJE5   0.0000
    66 N6     -11.3822  11.5308  63.2337   N.am      5 PJE5   0.0000
    67 C29    -12.4241  12.3057  63.7887   C.2       5 PJE5   0.0000
    68 O8     -13.5551  12.2598  63.4967   O.2       5 PJE5   0.0000
    69 N5     -12.2780  14.9937  67.1248   N.am      5 PJE5   0.0000
    70 O7      -9.9390  17.7846  67.5738   O.2       5 PJE5   0.0000
    71 H170   -10.7406  15.5045  65.8234   H         5 PJE5   0.0000
    72 H171   -12.0866  18.9393  65.7514   H         5 PJE5   0.0000
    73 H172   -12.2471  15.0364  63.8303   H         5 PJE5   0.0000
    74 H173   -13.5067  14.5191  64.9741   H         5 PJE5   0.0000
    75 H174   -12.0033  12.7583  65.8207   H         5 PJE5   0.0000
    76 H175    -9.7992  13.3234  65.5011   H         5 PJE5   0.0000
    77 H176   -10.1078  14.0710  63.9173   H         5 PJE5   0.0000
    78 H177    -9.8279  11.1376  64.6213   H         5 PJE5   0.0000
    79 H178    -9.3134  11.9872  63.1463   H         5 PJE5   0.0000
    80 H179   -11.4921  10.8358  62.5021   H         5 PJE5   0.0000
    81 H180   -13.2914  15.0401  67.1557   H         5 PJE5   0.0000
    82 C       -7.8971  17.6486  66.6978   C.3       6 0106   0.0000
    83 O       -8.9071  17.8486  65.7048   O.3       6 0106   0.0000
    84 C1      -5.8061  18.9966  67.2608   C.ar      6 0106   0.0000
    85 C2      -5.1341  20.2046  67.4408   C.ar      6 0106   0.0000
    86 C3      -5.8111  21.4136  67.2588   C.ar      6 0106   0.0000
    87 C4      -7.1521  21.4056  66.8998   C.ar      6 0106   0.0000
    88 C5      -7.8271  20.2006  66.7168   C.ar      6 0106   0.0000
    89 C6      -7.1491  18.9936  66.8978   C.ar      6 0106   0.0000
    90 H181    -7.1980  16.8828  66.3650   H         6 0106   0.0000
    91 H182    -8.3565  17.3382  67.6351   H         6 0106   0.0000
    92 H183    -5.2793  18.0544  67.4045   H         6 0106   0.0000
    93 H184    -4.0824  20.2062  67.7231   H         6 0106   0.0000
    94 H185    -5.2885  22.3587  67.3981   H         6 0106   0.0000
    95 H186    -7.6801  22.3477  66.7602   H         6 0106   0.0000
    96 H187    -8.8787  20.2002  66.4339   H         6 0106   0.0000
@<TRIPOS>BOND
     1     1     2    2
     2     2     3    1
     3     2     4    1
     4     4     5    1
     5     1     6    1
     6     5     6    2
     7     6     7    1
     8     7     8    2
     9     7    13   am
    10    13    14    1
    11    14    15    1
    12    15    16    2
    13    14    17    1
    14    15    23   am
    15    23    24    1
    16    24    25    1
    17    25    26    2
    18    24    27    1
    19    27    28    1
    20    27    29    1
    21    25    39   am
    22    39    40    1
    23    40    41    1
    24    41    42    2
    25    40    43    1
    26    43    44    1
    27    44    45    1
    28    44    46    1
    29    58    59    1
    30    59    60    2
    31    60    61    1
    32    58    62    1
    33    62    63    1
    34    63    64    1
    35    64    65    1
    36    65    66    1
    37    63    67    1
    38    66    67   am
    39    67    68    2
    40    41    69   am
    41    58    69    1
    42    61    70    2
    43    61    83    1
    44    82    83    1
    45    84    85   ar
    46    85    86   ar
    47    86    87   ar
    48    87    88   ar
    49    82    89    1
    50    84    89   ar
    51    88    89   ar
    52    13    18    1
    53    14    19    1
    54    17    20    1
    55    17    21    1
    56    17    22    1
    57    23    30    1
    58    24    31    1
    59    27    32    1
    60    28    33    1
    61    28    34    1
    62    28    35    1
    63    29    36    1
    64    29    37    1
    65    29    38    1
    66    39    47    1
    67    40    48    1
    68    43    49    1
    69    43    50    1
    70    44    51    1
    71    45    52    1
    72    45    53    1
    73    45    54    1
    74    46    55    1
    75    46    56    1
    76    46    57    1
    77    58    71    1
    78    60    72    1
    79    62    73    1
    80    62    74    1
    81    63    75    1
    82    64    76    1
    83    64    77    1
    84    65    78    1
    85    65    79    1
    86    66    80    1
    87    69    81    1
    88    82    90    1
    89    82    91    1
    90    84    92    1
    91    85    93    1
    92    86    94    1
    93    87    95    1
    94    88    96    1
    95     1     9    1
    96     3    10    1
    97     3    11    1
    98     3    12    1
@<TRIPOS>SUBSTRUCTURE
     1 02J1        1 GROUP             0 C     02J     0  
     2 ALA2       13 GROUP             0 C     ALA     0  
     3 VAL3       23 GROUP             0 C     VAL     0  
     4 LEU4       39 GROUP             0 C     LEU     0  
     5 PJE5       58 GROUP             0 C     PJE     0  
     6 0106       82 GROUP             0 C     010     0  
@<TRIPOS>SET
CCDC_LIGAND STATIC ATOMS
96 1 2 3 4 5 6 7 8 9 \
10 11 12 13 14 15 16 17 18 19 \
20 21 22 23 24 25 26 27 28 29 \
30 31 32 33 34 35 36 37 38 39 \
40 41 42 43 44 45 46 47 48 49 \
50 51 52 53 54 55 56 57 58 59 \
60 61 62 63 64 65 66 67 68 69 \
70 71 72 73 74 75 76 77 78 79 \
80 81 82 83 84 85 86 87 88 89 \
90 91 92 93 94 95 96 
