@<TRIPOS>MOLECULE
2W5Y_SAH_A_4971
    46    48     1     0     0
SMALL
NO_CHARGES
****
Generated from the CSD

@<TRIPOS>ATOM
     1 N1     -40.3820   6.3370  17.7410   N.4       1 <1>    0.0000
     2 C1     -40.8700   7.3420  16.8000   C.3       1 <1>    0.0000
     3 C2     -39.7860   8.3860  16.4780   C.3       1 <1>    0.0000
     4 C3     -39.7230   9.5370  17.4830   C.3       1 <1>    0.0000
     5 S1     -41.1380  10.6720  17.2870   S.3       1 <1>    0.0000
     6 C4     -41.4840   6.6880  15.5550   C.2       1 <1>    0.0000
     7 O1     -41.4960   5.4670  15.4140   O.co2     1 <1>    0.0000
     8 O2     -41.9980   7.3510  14.6610   O.co2     1 <1>    0.0000
     9 C5     -41.4890  10.8460  19.0540   C.3       1 <1>    0.0000
    10 C6     -42.5860   9.8920  19.5300   C.3       1 <1>    0.0000
    11 O3     -42.0700   8.5820  19.7330   O.3       1 <1>    0.0000
    12 C7     -43.1950  10.3270  20.8510   C.3       1 <1>    0.0000
    13 O4     -44.3590  11.0880  20.6480   O.3       1 <1>    0.0000
    14 C8     -43.5550   9.0220  21.5080   C.3       1 <1>    0.0000
    15 O5     -44.8110   8.6380  21.0150   O.3       1 <1>    0.0000
    16 C9     -42.5410   8.0420  20.9550   C.3       1 <1>    0.0000
    17 N2     -41.4210   7.9200  21.9070   N.ar      1 <1>    0.0000
    18 C10    -40.1770   8.4830  21.7670   C.ar      1 <1>    0.0000
    19 N3     -39.4330   8.1480  22.8460   N.ar      1 <1>    0.0000
    20 C11    -40.1800   7.3880  23.6810   C.ar      1 <1>    0.0000
    21 C12    -39.9150   6.7910  24.9100   C.ar      1 <1>    0.0000
    22 N4     -38.7260   6.9140  25.4900   N.pl3     1 <1>    0.0000
    23 N5     -40.9050   6.0600  25.5360   N.ar      1 <1>    0.0000
    24 C13    -42.1440   5.9180  24.9420   C.ar      1 <1>    0.0000
    25 N6     -42.3980   6.5130  23.7210   N.ar      1 <1>    0.0000
    26 C14    -41.4360   7.2380  23.1000   C.ar      1 <1>    0.0000
    27 H1     -39.9806   6.8008  18.5560   H         1 <1>    0.0000
    28 H2     -39.6679   5.7661  17.2887   H         1 <1>    0.0000
    29 H3     -41.6645   7.8845  17.2684   H         1 <1>    0.0000
    30 H4     -39.9870   8.7939  15.5094   H         1 <1>    0.0000
    31 H5     -38.8434   7.8815  16.5210   H         1 <1>    0.0000
    32 H6     -38.8154  10.0828  17.3304   H         1 <1>    0.0000
    33 H7     -39.7572   9.1242  18.4696   H         1 <1>    0.0000
    34 H9     -41.8022  11.8513  19.2443   H         1 <1>    0.0000
    35 H10    -40.5940  10.6049  19.5886   H         1 <1>    0.0000
    36 H11    -43.3299   9.9038  18.7610   H         1 <1>    0.0000
    37 H12    -42.5310  10.9372  21.4269   H         1 <1>    0.0000
    38 H13    -44.9951  10.5733  20.1271   H         1 <1>    0.0000
    39 H14    -43.5674   9.0715  22.5768   H         1 <1>    0.0000
    40 H15    -44.7799   8.5988  20.0463   H         1 <1>    0.0000
    41 H16    -42.9731   7.0749  20.8037   H         1 <1>    0.0000
    42 H17    -39.8627   9.0632  20.9735   H         1 <1>    0.0000
    43 H18    -38.0150   7.4336  25.0499   H         1 <1>    0.0000
    44 H19    -38.5560   6.4855  26.3599   H         1 <1>    0.0000
    45 H20    -42.8804   5.3672  25.4104   H         1 <1>    0.0000
    46 H      -41.1528   5.7452  18.0340   H         1 <1>    0.0000
@<TRIPOS>BOND
     1     1     2    1
     2     2     3    1
     3     2     6    1
     4     3     4    1
     5     4     5    1
     6     5     9    1
     7     6     7    2
     8     6     8    1
     9     9    10    1
    10    10    11    1
    11    10    12    1
    12    11    16    1
    13    12    13    1
    14    12    14    1
    15    14    15    1
    16    14    16    1
    17    16    17    1
    18    17    18   ar
    19    17    26   ar
    20    18    19   ar
    21    19    20   ar
    22    20    21   ar
    23    20    26   ar
    24    21    22    1
    25    21    23   ar
    26    23    24   ar
    27    24    25   ar
    28    25    26   ar
    29     1    27    1
    30     1    28    1
    31     2    29    1
    32     3    30    1
    33     3    31    1
    34     4    32    1
    35     4    33    1
    36     9    34    1
    37     9    35    1
    38    10    36    1
    39    12    37    1
    40    13    38    1
    41    14    39    1
    42    15    40    1
    43    16    41    1
    44    18    42    1
    45    22    43    1
    46    22    44    1
    47    24    45    1
    48     1    46    1
@<TRIPOS>SUBSTRUCTURE
     1 <1>         1 GROUP             0 L_1   ****    0  
