@<TRIPOS>MOLECULE
xxxx
    26    26     1     0     1
SMALL
NO_CHARGES
****
Generated from the CSD

@<TRIPOS>ATOM
     1 C01      6.4347  -4.9520  26.5779   C.3       1 LIG1101   0.0000
     2 S02      8.0958  -4.3580  26.1539   S.o2      1 LIG1101   0.0000
     3 O03      9.0838  -5.4409  26.1699   O.2       1 LIG1101   0.0000
     4 O04      8.6398  -3.5100  27.2009   O.2       1 LIG1101   0.0000
     5 N05      8.0617  -3.5350  24.6619   N.pl3     1 LIG1101   0.0000
     6 C06      9.3147  -3.0270  24.1659   C.3       1 LIG1101   0.0000
     7 C07      9.2107  -1.7480  23.3469   C.3       1 LIG1101   0.0000
     8 C08     10.6048  -1.1420  23.3929   C.ar      1 LIG1101   0.0000
     9 C09     10.9098  -0.0960  24.2539   C.ar      1 LIG1101   0.0000
    10 C10     12.1988   0.4100  24.2779   C.ar      1 LIG1101   0.0000
    11 C11     13.1798  -0.1430  23.4699   C.ar      1 LIG1101   0.0000
    12 C12     12.8718  -1.1970  22.6199   C.ar      1 LIG1101   0.0000
    13 C13     11.5838  -1.6930  22.5899   C.ar      1 LIG1101   0.0000
    14 H1       9.7658  -3.7943  23.5385   H         1 LIG1101   0.0000
    15 H2       9.9612  -2.8299  25.0198   H         1 LIG1101   0.0000
    16 H3       8.4825  -1.0686  23.7875   H         1 LIG1101   0.0000
    17 H4       8.9236  -1.9721  22.3206   H         1 LIG1101   0.0000
    18 H5       7.1969  -3.4085  24.1459   H         1 LIG1101   0.0000
    19 H6       6.4484  -5.3865  27.5764   H         1 LIG1101   0.0000
    20 H7       5.7342  -4.1186  26.5543   H         1 LIG1101   0.0000
    21 H8       6.1245  -5.7075  25.8575   H         1 LIG1101   0.0000
    22 H9      10.1428   0.3224  24.9040   H         1 LIG1101   0.0000
    23 H10     12.4423   1.2448  24.9335   H         1 LIG1101   0.0000
    24 H11     14.1949   0.2501  23.5017   H         1 LIG1101   0.0000
    25 H12     13.6409  -1.6293  21.9815   H         1 LIG1101   0.0000
    26 H13     11.3385  -2.5233  21.9294   H         1 LIG1101   0.0000
@<TRIPOS>BOND
     1     1     2    1
     2     2     3    2
     3     2     4    2
     4     2     5    1
     5     5     6    1
     6     6     7    1
     7     7     8    1
     8     8     9   ar
     9     9    10   ar
    10    10    11   ar
    11    11    12   ar
    12     8    13   ar
    13    12    13   ar
    14     6    14    1
    15     6    15    1
    16     7    16    1
    17     7    17    1
    18     5    18    1
    19     1    19    1
    20     1    20    1
    21     1    21    1
    22     9    22    1
    23    10    23    1
    24    11    24    1
    25    12    25    1
    26    13    26    1
@<TRIPOS>SUBSTRUCTURE
     1 LIG1101     1 GROUP             0 A     LIG     0  
@<TRIPOS>SET
CCDC_LIGAND STATIC ATOMS
26 1 2 3 4 5 6 7 8 9 \
10 11 12 13 14 15 16 17 18 19 \
20 21 22 23 24 25 26 
