@<TRIPOS>MOLECULE

    17    17     1     0     0
SMALL
NO_CHARGES
****
Generated from the CSD

@<TRIPOS>ATOM
     1 Br1     -4.3576  -0.6941   0.4291   Br        1 RES1   0.0000
     2 C2      -2.4912  -0.3699   0.1393   C.2       1 RES1   0.0000
     3 C3      -1.9116   0.8106   0.5502   C.2       1 RES1   0.0000
     4 C4      -0.5609   1.0676   0.3509   C.2       1 RES1   0.0000
     5 C5       0.2519   0.1395  -0.2713   C.2       1 RES1   0.0000
     6 S6       1.9605   0.4207  -0.5437   S.o2      1 RES1   0.0000
     7 N7       2.8303  -0.1575   0.8069   N.pl3     1 RES1   0.0000
     8 O8       2.1633   1.8651  -0.8148   O.2       1 RES1   0.0000
     9 O9       2.3951  -0.3496  -1.7516   O.2       1 RES1   0.0000
    10 C10     -0.3351  -1.0409  -0.6803   C.2       1 RES1   0.0000
    11 C11     -1.6830  -1.2930  -0.4794   C.2       1 RES1   0.0000
    12 H12     -2.5163   1.5542   1.0376   H         1 RES1   0.0000
    13 H13     -0.1027   1.9873   0.6694   H         1 RES1   0.0000
    14 H14      2.3351  -0.0850   1.7065   H         1 RES1   0.0000
    15 H15      3.8233   0.1401   0.8326   H         1 RES1   0.0000
    16 H16      0.3188  -1.7737  -1.1744   H         1 RES1   0.0000
    17 H17     -2.1198  -2.2216  -0.8070   H         1 RES1   0.0000
@<TRIPOS>BOND
     1     1     2    1
     2     2     3    2
     3     3     4    1
     4     4     5    2
     5     5     6    1
     6     6     7    1
     7     6     8    2
     8     6     9    2
     9     5    10    1
    10    10    11    2
    11    11     2    1
    12     3    12    1
    13     4    13    1
    14     7    14    1
    15     7    15    1
    16    10    16    1
    17    11    17    1
@<TRIPOS>SUBSTRUCTURE
     1 RES1        1 GROUP             0 ****  ****    0  
@<TRIPOS>CRYSIN
    1.0000    1.0000    1.0000   90.0000   90.0000   90.0000     1     1
