@<TRIPOS>MOLECULE

    29    30     1     0     0
SMALL
NO_CHARGES
****
Generated from the CSD

@<TRIPOS>ATOM
     1 C1      -4.5805  -0.3044  -1.2422   C.3       1 RES1   0.0000
     2 C2      -3.8154  -0.0940  -0.0133   C.2       1 RES1   0.0000
     3 O3      -4.3907  -0.2885   1.0927   O.2       1 RES1   0.0000
     4 N4      -2.4598   0.3169   0.0371   N.am      1 RES1   0.0000
     5 C5      -1.7413   0.5135   1.2517   C.3       1 RES1   0.0000
     6 C6      -0.3215   0.9481   1.0659   C.3       1 RES1   0.0000
     7 C7       0.5002  -0.0015   0.3084   C.2       1 RES1   0.0000
     8 C8       0.1628  -1.2133  -0.2475   C.2       1 RES1   0.0000
     9 N9       1.2255  -1.7657  -0.8615   N.pl3     1 RES1   0.0000
    10 C10      2.2516  -0.9089  -0.7018   C.2       1 RES1   0.0000
    11 C11      3.5533  -1.0138  -1.1444   C.2       1 RES1   0.0000
    12 C12      4.4530   0.0056  -0.8592   C.2       1 RES1   0.0000
    13 C13      4.0593   1.1320  -0.1329   C.2       1 RES1   0.0000
    14 F14      4.9037   2.1370   0.1609   F         1 RES1   0.0000
    15 C15      2.7539   1.1940   0.2876   C.2       1 RES1   0.0000
    16 C16      1.8344   0.1943   0.0190   C.2       1 RES1   0.0000
    17 H17     -4.2489   0.3382  -2.0923   H         1 RES1   0.0000
    18 H18     -5.6370  -0.0110  -1.0418   H         1 RES1   0.0000
    19 H19     -4.5441  -1.3471  -1.6156   H         1 RES1   0.0000
    20 H20     -1.9799   0.4789  -0.8719   H         1 RES1   0.0000
    21 H21     -2.3008   1.2392   1.8753   H         1 RES1   0.0000
    22 H22     -1.7158  -0.4346   1.8582   H         1 RES1   0.0000
    23 H23      0.1491   1.2173   2.0309   H         1 RES1   0.0000
    24 H24     -0.3470   1.9122   0.4781   H         1 RES1   0.0000
    25 H25     -0.8054  -1.6849  -0.2158   H         1 RES1   0.0000
    26 H26      1.2236  -2.6838  -1.3578   H         1 RES1   0.0000
    27 H27      3.8997  -1.8769  -1.7141   H         1 RES1   0.0000
    28 H28      5.4623  -0.0781  -1.2036   H         1 RES1   0.0000
    29 H29      2.4558   2.0792   0.8550   H         1 RES1   0.0000
@<TRIPOS>BOND
     1     1     2    1
     2     2     3    2
     3     2     4   am
     4     4     5    1
     5     5     6    1
     6     6     7    1
     7     7     8    2
     8     8     9    1
     9     9    10    1
    10    10    11    2
    11    11    12    1
    12    12    13    2
    13    13    14    1
    14    13    15    1
    15    15    16    2
    16    16     7    1
    17    10    16    1
    18     1    17    1
    19     1    18    1
    20     1    19    1
    21     4    20    1
    22     5    21    1
    23     5    22    1
    24     6    23    1
    25     6    24    1
    26     8    25    1
    27     9    26    1
    28    11    27    1
    29    12    28    1
    30    15    29    1
@<TRIPOS>SUBSTRUCTURE
     1 RES1        1 GROUP             0 ****  ****    0  
@<TRIPOS>CRYSIN
    1.0000    1.0000    1.0000   90.0000   90.0000   90.0000     1     1
