@<TRIPOS>MOLECULE

    28    29     1     0     0
SMALL
NO_CHARGES
****
Generated from the CSD

@<TRIPOS>ATOM
     1 O1      -3.9150   0.9028  -0.1968   O.3       1 RES1   0.0000
     2 C2      -2.7535   0.1348  -0.3069   C.3       1 RES1   0.0000
     3 C3      -1.6412   0.8649  -1.0098   C.3       1 RES1   0.0000
     4 C4      -0.3001   0.6851  -0.3687   C.3       1 RES1   0.0000
     5 N5      -0.0381  -0.6153   0.1415   N.3       1 RES1   0.0000
     6 C6       1.1039  -0.5739   1.0328   C.3       1 RES1   0.0000
     7 C7       2.3391  -0.0807   0.2925   C.2       1 RES1   0.0000
     8 C8       3.2116  -0.8828  -0.3224   C.2       1 RES1   0.0000
     9 C9       4.2822  -0.3088  -0.9523   C.2       1 RES1   0.0000
    10 S10      4.0336   1.3527  -0.6624   S.3       1 RES1   0.0000
    11 C11      2.5924   1.2692   0.2405   C.2       1 RES1   0.0000
    12 C12     -1.1195  -1.2372   0.8305   C.3       1 RES1   0.0000
    13 C13     -2.2268  -0.2314   1.0821   C.3       1 RES1   0.0000
    14 H14     -4.4236   0.5853   0.5922   H         1 RES1   0.0000
    15 H15     -2.9637  -0.7990  -0.8494   H         1 RES1   0.0000
    16 H16     -1.5980   0.6073  -2.1013   H         1 RES1   0.0000
    17 H17     -1.8980   1.9455  -0.9690   H         1 RES1   0.0000
    18 H18     -0.2532   1.4034   0.4920   H         1 RES1   0.0000
    19 H19      0.4701   0.9258  -1.1316   H         1 RES1   0.0000
    20 H20      1.2922  -1.6069   1.4115   H         1 RES1   0.0000
    21 H21      0.9199   0.0580   1.9171   H         1 RES1   0.0000
    22 H22      3.0931  -1.9906  -0.3362   H         1 RES1   0.0000
    23 H23      5.0915  -0.8227  -1.5041   H         1 RES1   0.0000
    24 H24      2.0337   2.1108   0.6605   H         1 RES1   0.0000
    25 H25     -0.8287  -1.6565   1.8265   H         1 RES1   0.0000
    26 H26     -1.5892  -2.0592   0.2263   H         1 RES1   0.0000
    27 H27     -1.8600   0.7027   1.5383   H         1 RES1   0.0000
    28 H28     -3.0549  -0.6833   1.6680   H         1 RES1   0.0000
@<TRIPOS>BOND
     1     1     2    1
     2     2     3    1
     3     3     4    1
     4     4     5    1
     5     5     6    1
     6     6     7    1
     7     7     8    1
     8     8     9    2
     9     9    10    1
    10    10    11    1
    11     5    12    1
    12    12    13    1
    13    13     2    1
    14     7    11    2
    15     1    14    1
    16     2    15    1
    17     3    16    1
    18     3    17    1
    19     4    18    1
    20     4    19    1
    21     6    20    1
    22     6    21    1
    23     8    22    1
    24     9    23    1
    25    11    24    1
    26    12    25    1
    27    12    26    1
    28    13    27    1
    29    13    28    1
@<TRIPOS>SUBSTRUCTURE
     1 RES1        1 GROUP             0 ****  ****    0  
@<TRIPOS>CRYSIN
    1.0000    1.0000    1.0000   90.0000   90.0000   90.0000     1     1
