@<TRIPOS>MOLECULE

    35    35     1     0     0
SMALL
NO_CHARGES
****
Generated from the CSD

@<TRIPOS>ATOM
     1 C1      -1.6829  -3.9008   0.7873   C.3       1 RES1   0.0000
     2 C2      -0.6056  -2.9168   0.4951   C.2       1 RES1   0.0000
     3 O3       0.5433  -3.1306   0.8817   O.2       1 RES1   0.0000
     4 N4      -0.8994  -1.7374  -0.2414   N.am      1 RES1   0.0000
     5 C5      -0.1049  -0.7151  -0.7035   C.3       1 RES1   0.0000
     6 C6       0.9172  -0.1015   0.2441   C.3       1 RES1   0.0000
     7 C7       0.1624   0.6047   1.3222   C.2       1 RES1   0.0000
     8 C8       0.1731   0.1006   2.6235   C.2       1 RES1   0.0000
     9 C9      -0.5684   0.6959   3.6073   C.2       1 RES1   0.0000
    10 C10     -1.3738   1.8424   3.3525   C.2       1 RES1   0.0000
    11 C11     -1.3916   2.3377   2.1135   C.2       1 RES1   0.0000
    12 C12     -0.6168   1.7103   1.1105   C.2       1 RES1   0.0000
    13 O13     -2.0500   2.3068   4.4977   O.3       1 RES1   0.0000
    14 C14      0.5193  -0.8340  -2.0484   C.2       1 RES1   0.0000
    15 O15      0.5046  -1.7620  -2.7537   O.2       1 RES1   0.0000
    16 N16      1.1899   0.4522  -2.3905   N.am      1 RES1   0.0000
    17 C17      1.8843   0.4763  -3.6284   C.3       1 RES1   0.0000
    18 C18      2.5010   1.9210  -3.7485   C.1       1 RES1   0.0000
    19 C19      2.9266   2.9603  -3.8258   C.1       1 RES1   0.0000
    20 Br20     3.6215   4.6382  -3.9685   Br        1 RES1   0.0000
    21 H21     -1.3718  -4.7706   1.3583   H         1 RES1   0.0000
    22 H22     -2.1188  -4.2355  -0.2167   H         1 RES1   0.0000
    23 H23     -2.5754  -3.4068   1.2605   H         1 RES1   0.0000
    24 H24     -1.9719  -1.6404  -0.4535   H         1 RES1   0.0000
    25 H25     -0.8556   0.2240  -0.8345   H         1 RES1   0.0000
    26 H26      1.4766  -0.9733   0.7236   H         1 RES1   0.0000
    27 H27      1.6792   0.5288  -0.1676   H         1 RES1   0.0000
    28 H28      0.8163  -0.7453   2.7820   H         1 RES1   0.0000
    29 H29     -0.5458   0.2787   4.6438   H         1 RES1   0.0000
    30 H30     -1.9873   3.1858   1.8075   H         1 RES1   0.0000
    31 H31     -0.6278   2.1477   0.1070   H         1 RES1   0.0000
    32 H32     -2.6594   3.0687   4.5316   H         1 RES1   0.0000
    33 H33      1.1556   1.2840  -1.7935   H         1 RES1   0.0000
    34 H34      2.7055  -0.2365  -3.6983   H         1 RES1   0.0000
    35 H35      1.2308   0.3427  -4.4911   H         1 RES1   0.0000
@<TRIPOS>BOND
     1     1     2    1
     2     2     3    2
     3     2     4   am
     4     4     5    1
     5     5     6    1
     6     6     7    1
     7     7     8    2
     8     8     9    1
     9     9    10    2
    10    10    11    1
    11    11    12    2
    12    10    13    1
    13     5    14    1
    14    14    15    2
    15    14    16   am
    16    16    17    1
    17    17    18    1
    18    18    19    3
    19    19    20    1
    20    12     7    1
    21     1    21    1
    22     1    22    1
    23     1    23    1
    24     4    24    1
    25     5    25    1
    26     6    26    1
    27     6    27    1
    28     8    28    1
    29     9    29    1
    30    11    30    1
    31    12    31    1
    32    13    32    1
    33    16    33    1
    34    17    34    1
    35    17    35    1
@<TRIPOS>SUBSTRUCTURE
     1 RES1        1 GROUP             0 ****  ****    0  
@<TRIPOS>CRYSIN
    1.0000    1.0000    1.0000   90.0000   90.0000   90.0000     1     1
