@<TRIPOS>MOLECULE

    39    40     1     0     0
SMALL
NO_CHARGES
****
Generated from the CSD

@<TRIPOS>ATOM
     1 O1       0.2715   0.9270   0.7408   O.2       1 RES1   0.0000
     2 C2      -0.1667  -0.1878   0.4098   C.2       1 RES1   0.0000
     3 N3       0.6353  -1.3379   0.3163   N.am      1 RES1   0.0000
     4 C4       2.0365  -1.2746   0.5985   C.3       1 RES1   0.0000
     5 C5       2.7052  -0.3407  -0.3502   C.3       1 RES1   0.0000
     6 C6       4.1718  -0.2357  -0.1087   C.2       1 RES1   0.0000
     7 C7       5.0904  -1.0574  -0.7193   C.2       1 RES1   0.0000
     8 C8       6.4468  -0.8851  -0.4313   C.2       1 RES1   0.0000
     9 N9       6.8624   0.0552   0.4189   N.2       1 RES1   0.0000
    10 C10      5.9937   0.8785   1.0361   C.2       1 RES1   0.0000
    11 C11      4.6335   0.7247   0.7636   C.2       1 RES1   0.0000
    12 N12     -1.5724  -0.2539   0.1172   N.am      1 RES1   0.0000
    13 C13     -2.4177   0.9147   0.2062   C.3       1 RES1   0.0000
    14 C14     -3.3992   0.7629   1.3310   C.3       1 RES1   0.0000
    15 C15     -4.2729  -0.4155   1.0185   C.3       1 RES1   0.0000
    16 C16     -5.0976  -0.1117  -0.1954   C.3       1 RES1   0.0000
    17 C17     -4.6064   1.0002  -1.0341   C.3       1 RES1   0.0000
    18 C18     -3.1259   1.1802  -1.0840   C.3       1 RES1   0.0000
    19 H19      0.1977  -2.2363   0.0395   H         1 RES1   0.0000
    20 H20      2.2416  -0.9980   1.6668   H         1 RES1   0.0000
    21 H21      2.4723  -2.2956   0.4378   H         1 RES1   0.0000
    22 H22      2.2693   0.6587  -0.3222   H         1 RES1   0.0000
    23 H23      2.5398  -0.7520  -1.3859   H         1 RES1   0.0000
    24 H24      4.7475  -1.8016  -1.3936   H         1 RES1   0.0000
    25 H25      7.1759  -1.5310  -0.9106   H         1 RES1   0.0000
    26 H26      6.3719   1.6229   1.7142   H         1 RES1   0.0000
    27 H27      3.9715   1.4023   1.2770   H         1 RES1   0.0000
    28 H28     -1.9708  -1.1842  -0.1684   H         1 RES1   0.0000
    29 H29     -1.7465   1.7799   0.4976   H         1 RES1   0.0000
    30 H30     -2.8713   0.6563   2.3003   H         1 RES1   0.0000
    31 H31     -4.0632   1.6592   1.3901   H         1 RES1   0.0000
    32 H32     -3.6613  -1.3219   0.9267   H         1 RES1   0.0000
    33 H33     -4.9359  -0.6145   1.9169   H         1 RES1   0.0000
    34 H34     -5.1746  -1.0763  -0.7769   H         1 RES1   0.0000
    35 H35     -6.1336   0.0977   0.1439   H         1 RES1   0.0000
    36 H36     -5.0856   1.9785  -0.7385   H         1 RES1   0.0000
    37 H37     -4.9538   0.8291  -2.0821   H         1 RES1   0.0000
    38 H38     -2.6575   0.5505  -1.8697   H         1 RES1   0.0000
    39 H39     -2.9214   2.2330  -1.3707   H         1 RES1   0.0000
@<TRIPOS>BOND
     1     1     2    2
     2     2     3   am
     3     3     4    1
     4     4     5    1
     5     5     6    1
     6     6     7    2
     7     7     8    1
     8     8     9    2
     9     9    10    1
    10    10    11    2
    11     2    12   am
    12    12    13    1
    13    13    14    1
    14    14    15    1
    15    15    16    1
    16    16    17    1
    17    17    18    1
    18     6    11    1
    19    18    13    1
    20     3    19    1
    21     4    20    1
    22     4    21    1
    23     5    22    1
    24     5    23    1
    25     7    24    1
    26     8    25    1
    27    10    26    1
    28    11    27    1
    29    12    28    1
    30    13    29    1
    31    14    30    1
    32    14    31    1
    33    15    32    1
    34    15    33    1
    35    16    34    1
    36    16    35    1
    37    17    36    1
    38    17    37    1
    39    18    38    1
    40    18    39    1
@<TRIPOS>SUBSTRUCTURE
     1 RES1        1 GROUP             0 ****  ****    0  
@<TRIPOS>CRYSIN
    1.0000    1.0000    1.0000   90.0000   90.0000   90.0000     1     1
