@<TRIPOS>MOLECULE

    33    34     1     0     0
SMALL
NO_CHARGES
****
Generated from the CSD

@<TRIPOS>ATOM
     1 O1      -0.6242   0.5188   1.6021   O.2       1 RES1   0.0000
     2 C2      -0.9673   0.3222   0.3925   C.2       1 RES1   0.0000
     3 N3      -0.8216  -0.9860  -0.1019   N.am      1 RES1   0.0000
     4 C4      -0.3069  -2.1040   0.6625   C.3       1 RES1   0.0000
     5 C5       1.1639  -2.1091   0.7895   C.2       1 RES1   0.0000
     6 C6       1.9125  -2.7205  -0.2221   C.2       1 RES1   0.0000
     7 C7       3.2931  -2.7582  -0.1617   C.2       1 RES1   0.0000
     8 C8       3.9753  -2.1818   0.9181   C.2       1 RES1   0.0000
     9 C9       5.4209  -2.2271   0.9568   C.1       1 RES1   0.0000
    10 N10      6.5748  -2.2487   1.0017   N.1       1 RES1   0.0000
    11 C11      3.2457  -1.5778   1.9182   C.2       1 RES1   0.0000
    12 C12      1.8553  -1.5525   1.8365   C.2       1 RES1   0.0000
    13 N13     -1.4580   1.4434  -0.3227   N.am      1 RES1   0.0000
    14 C14     -1.5483   2.7158   0.3637   C.3       1 RES1   0.0000
    15 C15     -2.7551   3.5010  -0.1028   C.3       1 RES1   0.0000
    16 O16     -2.7983   3.5636  -1.4977   O.3       1 RES1   0.0000
    17 C17     -3.0915   2.2513  -1.9132   C.3       1 RES1   0.0000
    18 C18     -1.8713   1.4075  -1.6926   C.3       1 RES1   0.0000
    19 H19     -1.1142  -1.1479  -1.0992   H         1 RES1   0.0000
    20 H20     -0.7460  -2.1420   1.7014   H         1 RES1   0.0000
    21 H21     -0.6101  -3.0389   0.1794   H         1 RES1   0.0000
    22 H22      1.3730  -3.1615  -1.0457   H         1 RES1   0.0000
    23 H23      3.8913  -3.2190  -0.9220   H         1 RES1   0.0000
    24 H24      3.7708  -1.1239   2.7723   H         1 RES1   0.0000
    25 H25      1.3024  -1.0787   2.6353   H         1 RES1   0.0000
    26 H26     -1.6833   2.5698   1.4734   H         1 RES1   0.0000
    27 H27     -0.5958   3.2749   0.2738   H         1 RES1   0.0000
    28 H28     -3.6578   2.9690   0.2418   H         1 RES1   0.0000
    29 H29     -2.7266   4.4878   0.3530   H         1 RES1   0.0000
    30 H30     -3.3278   2.2904  -3.0171   H         1 RES1   0.0000
    31 H31     -3.9695   1.8468  -1.3733   H         1 RES1   0.0000
    32 H32     -2.0600   0.3873  -2.0778   H         1 RES1   0.0000
    33 H33     -1.0454   1.8280  -2.3193   H         1 RES1   0.0000
@<TRIPOS>BOND
     1     1     2    2
     2     2     3   am
     3     3     4    1
     4     4     5    1
     5     5     6    2
     6     6     7    1
     7     7     8    2
     8     8     9    1
     9     9    10    3
    10     8    11    1
    11    11    12    2
    12     2    13   am
    13    13    14    1
    14    14    15    1
    15    15    16    1
    16    16    17    1
    17    17    18    1
    18     5    12    1
    19    18    13    1
    20     3    19    1
    21     4    20    1
    22     4    21    1
    23     6    22    1
    24     7    23    1
    25    11    24    1
    26    12    25    1
    27    14    26    1
    28    14    27    1
    29    15    28    1
    30    15    29    1
    31    17    30    1
    32    17    31    1
    33    18    32    1
    34    18    33    1
@<TRIPOS>SUBSTRUCTURE
     1 RES1        1 GROUP             0 ****  ****    0  
@<TRIPOS>CRYSIN
    1.0000    1.0000    1.0000   90.0000   90.0000   90.0000     1     1
