@<TRIPOS>MOLECULE

    32    33     1     0     0
SMALL
NO_CHARGES
****
Generated from the CSD

@<TRIPOS>ATOM
     1 C1       4.8250   0.5722  -1.3620   C.3       1 RES1   0.0000
     2 S2       4.3201  -0.5876  -0.1073   S.o2      1 RES1   0.0000
     3 O3       5.0413  -0.3032   1.1796   O.2       1 RES1   0.0000
     4 O4       4.6334  -2.0082  -0.5546   O.2       1 RES1   0.0000
     5 C5       2.5812  -0.4460   0.0793   C.2       1 RES1   0.0000
     6 C6       1.7185  -1.2143  -0.6710   C.2       1 RES1   0.0000
     7 C7       0.3528  -1.1101  -0.5318   C.2       1 RES1   0.0000
     8 C8      -0.2236  -0.2285   0.3689   C.2       1 RES1   0.0000
     9 C9       0.6245   0.5420   1.1224   C.2       1 RES1   0.0000
    10 C10      2.0138   0.4320   0.9764   C.2       1 RES1   0.0000
    11 N11     -1.6184  -0.1243   0.5372   N.pl3     1 RES1   0.0000
    12 C12     -2.2102   1.0895   1.0277   C.3       1 RES1   0.0000
    13 C13     -3.2647   1.5407   0.0259   C.3       1 RES1   0.0000
    14 N14     -4.1830   0.4811  -0.2333   N.3       1 RES1   0.0000
    15 C15     -3.5344  -0.7103  -0.7541   C.3       1 RES1   0.0000
    16 C16     -2.5178  -1.2256   0.2465   C.3       1 RES1   0.0000
    17 H17      5.2752   1.4746  -0.8680   H         1 RES1   0.0000
    18 H18      3.9815   0.9082  -1.9885   H         1 RES1   0.0000
    19 H19      5.5891   0.0858  -2.0061   H         1 RES1   0.0000
    20 H20      2.1650  -1.9173  -1.3888   H         1 RES1   0.0000
    21 H21     -0.2894  -1.7338  -1.1472   H         1 RES1   0.0000
    22 H22      0.2047   1.2317   1.8407   H         1 RES1   0.0000
    23 H23      2.6393   1.0468   1.5784   H         1 RES1   0.0000
    24 H24     -2.7937   0.8118   1.9465   H         1 RES1   0.0000
    25 H25     -1.5180   1.8956   1.2560   H         1 RES1   0.0000
    26 H26     -2.7191   1.8950  -0.8785   H         1 RES1   0.0000
    27 H27     -3.8222   2.3643   0.5175   H         1 RES1   0.0000
    28 H28     -4.9169   0.7478  -0.8996   H         1 RES1   0.0000
    29 H29     -4.3470  -1.4591  -0.9280   H         1 RES1   0.0000
    30 H30     -2.9823  -0.4603  -1.6825   H         1 RES1   0.0000
    31 H31     -1.9917  -2.0885  -0.1484   H         1 RES1   0.0000
    32 H32     -3.0327  -1.5020   1.2065   H         1 RES1   0.0000
@<TRIPOS>BOND
     1     1     2    1
     2     2     3    2
     3     2     4    2
     4     2     5    1
     5     5     6    2
     6     6     7    1
     7     7     8    2
     8     8     9    1
     9     9    10    2
    10     8    11    1
    11    11    12    1
    12    12    13    1
    13    13    14    1
    14    14    15    1
    15    15    16    1
    16    10     5    1
    17    16    11    1
    18     1    17    1
    19     1    18    1
    20     1    19    1
    21     6    20    1
    22     7    21    1
    23     9    22    1
    24    10    23    1
    25    12    24    1
    26    12    25    1
    27    13    26    1
    28    13    27    1
    29    14    28    1
    30    15    29    1
    31    15    30    1
    32    16    31    1
    33    16    32    1
@<TRIPOS>SUBSTRUCTURE
     1 RES1        1 GROUP             0 ****  ****    0  
@<TRIPOS>CRYSIN
    1.0000    1.0000    1.0000   90.0000   90.0000   90.0000     1     1
