@<TRIPOS>MOLECULE

    13    12     1     0     0
SMALL
NO_CHARGES
****
Generated from the CSD

@<TRIPOS>ATOM
     1 C1      -1.6047  -0.2721   0.2227   C.3       1 RES1   0.0000
     2 C2      -0.4882  -0.2211  -0.8060   C.3       1 RES1   0.0000
     3 C3       0.7560   0.3460  -0.2598   C.2       1 RES1   0.0000
     4 N4       1.3125   1.4029  -0.7344   N.2       1 RES1   0.0000
     5 N5       1.3813  -0.2875   0.8370   N.pl3     1 RES1   0.0000
     6 H6      -2.5037   0.2284  -0.1639   H         1 RES1   0.0000
     7 H7      -1.3242   0.2276   1.1635   H         1 RES1   0.0000
     8 H8      -1.8225  -1.3388   0.4907   H         1 RES1   0.0000
     9 H9      -0.3016  -1.2413  -1.2442   H         1 RES1   0.0000
    10 H10     -0.7896   0.4087  -1.6749   H         1 RES1   0.0000
    11 H11      2.1904   1.7790  -0.3273   H         1 RES1   0.0000
    12 H12      2.3362  -0.7185   0.7353   H         1 RES1   0.0000
    13 H13      0.8579  -0.3135   1.7613   H         1 RES1   0.0000
@<TRIPOS>BOND
     1     1     2    1
     2     2     3    1
     3     3     4    2
     4     3     5    1
     5     1     6    1
     6     1     7    1
     7     1     8    1
     8     2     9    1
     9     2    10    1
    10     4    11    1
    11     5    12    1
    12     5    13    1
@<TRIPOS>SUBSTRUCTURE
     1 RES1        1 GROUP             0 ****  ****    0  
@<TRIPOS>CRYSIN
    1.0000    1.0000    1.0000   90.0000   90.0000   90.0000     1     1
