@<TRIPOS>MOLECULE

    31    32     1     0     0
SMALL
NO_CHARGES
****
Generated from the CSD

@<TRIPOS>ATOM
     1 F1      -2.5586   0.0225  -1.4627   F         1 RES1   0.0000
     2 C2      -2.7376   0.5280  -0.2185   C.2       1 RES1   0.0000
     3 C3      -3.8088   1.4081  -0.1087   C.2       1 RES1   0.0000
     4 C4      -4.0796   1.9749   1.0965   C.2       1 RES1   0.0000
     5 C5      -3.2955   1.6721   2.1828   C.2       1 RES1   0.0000
     6 C6      -2.2388   0.7985   2.0554   C.2       1 RES1   0.0000
     7 C7      -1.9340   0.1993   0.8318   C.2       1 RES1   0.0000
     8 C8      -0.8285  -0.7042   0.7353   C.2       1 RES1   0.0000
     9 O9      -0.1465  -0.9296   1.8036   O.2       1 RES1   0.0000
    10 N10     -0.3634  -1.4071  -0.4020   N.am      1 RES1   0.0000
    11 C11      0.7850  -2.2947  -0.3333   C.3       1 RES1   0.0000
    12 C12      2.0553  -1.6309   0.0832   C.3       1 RES1   0.0000
    13 C13      2.4293  -0.5533  -0.8644   C.2       1 RES1   0.0000
    14 C14      2.0258   0.7443  -0.7059   C.2       1 RES1   0.0000
    15 C15      2.4076   1.6948  -1.6256   C.2       1 RES1   0.0000
    16 N16      3.1722   1.3609  -2.6766   N.2       1 RES1   0.0000
    17 C17      3.5885   0.1055  -2.8695   C.2       1 RES1   0.0000
    18 C18      3.2130  -0.8714  -1.9501   C.2       1 RES1   0.0000
    19 H19     -4.4314   1.6468  -0.9772   H         1 RES1   0.0000
    20 H20     -4.9204   2.6644   1.1783   H         1 RES1   0.0000
    21 H21     -3.4995   2.1152   3.1456   H         1 RES1   0.0000
    22 H22     -1.6559   0.5967   2.9429   H         1 RES1   0.0000
    23 H23     -0.8695  -1.2714  -1.2984   H         1 RES1   0.0000
    24 H24      0.9460  -2.7263  -1.3401   H         1 RES1   0.0000
    25 H25      0.5818  -3.1689   0.3353   H         1 RES1   0.0000
    26 H26      2.8742  -2.3919   0.0461   H         1 RES1   0.0000
    27 H27      2.0551  -1.2558   1.1279   H         1 RES1   0.0000
    28 H28      1.4025   1.0381   0.1453   H         1 RES1   0.0000
    29 H29      2.0678   2.7292  -1.4717   H         1 RES1   0.0000
    30 H30      4.2057  -0.2046  -3.7036   H         1 RES1   0.0000
    31 H31      3.5584  -1.8892  -2.1185   H         1 RES1   0.0000
@<TRIPOS>BOND
     1     1     2    1
     2     2     3    2
     3     3     4    1
     4     4     5    2
     5     5     6    1
     6     6     7    2
     7     7     8    1
     8     8     9    2
     9     8    10   am
    10    10    11    1
    11    11    12    1
    12    12    13    1
    13    13    14    2
    14    14    15    1
    15    15    16    2
    16    16    17    1
    17    17    18    2
    18     2     7    1
    19    13    18    1
    20     3    19    1
    21     4    20    1
    22     5    21    1
    23     6    22    1
    24    10    23    1
    25    11    24    1
    26    11    25    1
    27    12    26    1
    28    12    27    1
    29    14    28    1
    30    15    29    1
    31    17    30    1
    32    18    31    1
@<TRIPOS>SUBSTRUCTURE
     1 RES1        1 GROUP             0 ****  ****    0  
@<TRIPOS>CRYSIN
    1.0000    1.0000    1.0000   90.0000   90.0000   90.0000     1     1
