@<TRIPOS>MOLECULE

    23    23     1     0     0
SMALL
NO_CHARGES
****
Generated from the CSD

@<TRIPOS>ATOM
     1 C1       4.5368  -0.5634   0.7702   C.3       1 RES1   0.0000
     2 O2       3.1358  -0.5572   0.6147   O.3       1 RES1   0.0000
     3 C3       2.4443   0.1635  -0.3140   C.2       1 RES1   0.0000
     4 O4       3.0859   0.8933  -1.1127   O.2       1 RES1   0.0000
     5 C5       0.9843   0.0839  -0.3739   C.2       1 RES1   0.0000
     6 C6       0.2462  -0.6987   0.4773   C.2       1 RES1   0.0000
     7 C7      -1.1241  -0.7836   0.4332   C.2       1 RES1   0.0000
     8 C8      -1.8072  -0.0441  -0.5171   C.2       1 RES1   0.0000
     9 C9      -1.1063   0.7507  -1.3867   C.2       1 RES1   0.0000
    10 C10      0.2709   0.8173  -1.3201   C.2       1 RES1   0.0000
    11 S11     -3.5555  -0.1793  -0.5415   S.o2      1 RES1   0.0000
    12 O12     -3.9403  -1.5324  -0.0144   O.2       1 RES1   0.0000
    13 O13     -4.0281  -0.0328  -1.9583   O.2       1 RES1   0.0000
    14 N14     -4.2767   1.0083   0.4900   N.pl3     1 RES1   0.0000
    15 H15      4.9242  -1.6054   0.7748   H         1 RES1   0.0000
    16 H16      4.7471  -0.1595   1.7850   H         1 RES1   0.0000
    17 H17      5.0587   0.0077  -0.0179   H         1 RES1   0.0000
    18 H18      0.7718  -1.2749   1.2169   H         1 RES1   0.0000
    19 H19     -1.6230  -1.4305   1.1485   H         1 RES1   0.0000
    20 H20     -1.6709   1.3148  -2.1161   H         1 RES1   0.0000
    21 H21      0.8181   1.4432  -2.0054   H         1 RES1   0.0000
    22 H22     -3.5550   1.7833   0.5843   H         1 RES1   0.0000
    23 H23     -4.3369   0.5957   1.4517   H         1 RES1   0.0000
@<TRIPOS>BOND
     1     1     2    1
     2     2     3    1
     3     3     4    2
     4     3     5    1
     5     5     6    2
     6     6     7    1
     7     7     8    2
     8     8     9    1
     9     9    10    2
    10     8    11    1
    11    11    12    2
    12    11    13    2
    13    11    14    1
    14     5    10    1
    15     1    15    1
    16     1    16    1
    17     1    17    1
    18     6    18    1
    19     7    19    1
    20     9    20    1
    21    10    21    1
    22    14    22    1
    23    14    23    1
@<TRIPOS>SUBSTRUCTURE
     1 RES1        1 GROUP             0 ****  ****    0  
@<TRIPOS>CRYSIN
    1.0000    1.0000    1.0000   90.0000   90.0000   90.0000     1     1
