@<TRIPOS>MOLECULE

    12    12     1     0     0
SMALL
NO_CHARGES
****
Generated from the CSD

@<TRIPOS>ATOM
     1 N1      -2.0179   0.0299   0.0125   N.pl3     1 RES1   0.0000
     2 C2      -0.5940   0.0170   0.0077   C.2       1 RES1   0.0000
     3 C3       0.1007  -1.1479  -0.2477   C.2       1 RES1   0.0000
     4 N4       1.4420  -1.1504  -0.2501   N.2       1 RES1   0.0000
     5 C5       2.1675  -0.0432  -0.0092   C.2       1 RES1   0.0000
     6 N6       1.4875   1.0885   0.2389   N.2       1 RES1   0.0000
     7 C7       0.1440   1.1621   0.2568   C.2       1 RES1   0.0000
     8 H8      -2.5844  -0.3821   0.7864   H         1 RES1   0.0000
     9 H9      -2.5244   0.4702  -0.7921   H         1 RES1   0.0000
    10 H10     -0.4927  -2.0447  -0.4428   H         1 RES1   0.0000
    11 H11      3.2656  -0.0685  -0.0162   H         1 RES1   0.0000
    12 H12     -0.3939   2.0692   0.4557   H         1 RES1   0.0000
@<TRIPOS>BOND
     1     1     2    1
     2     2     3    2
     3     3     4    1
     4     4     5    2
     5     5     6    1
     6     6     7    2
     7     2     7    1
     8     1     8    1
     9     1     9    1
    10     3    10    1
    11     5    11    1
    12     7    12    1
@<TRIPOS>SUBSTRUCTURE
     1 RES1        1 GROUP             0 ****  ****    0  
@<TRIPOS>CRYSIN
    1.0000    1.0000    1.0000   90.0000   90.0000   90.0000     1     1
