@<TRIPOS>MOLECULE

    26    26     1     0     0
SMALL
NO_CHARGES
****
Generated from the CSD

@<TRIPOS>ATOM
     1 C1       4.0079  -0.1794   0.3018   C.3       1 RES1   0.0000
     2 S2       2.6149  -1.2169   0.5760   S.o2      1 RES1   0.0000
     3 O3       2.9693  -2.6151   0.1635   O.2       1 RES1   0.0000
     4 O4       2.2512  -1.2333   2.0259   O.2       1 RES1   0.0000
     5 N5       1.2904  -0.6024  -0.3525   N.pl3     1 RES1   0.0000
     6 C6       1.0058   0.7349   0.1266   C.3       1 RES1   0.0000
     7 C7      -0.1391   1.3745  -0.6150   C.3       1 RES1   0.0000
     8 C8      -1.3978   0.6213  -0.4942   C.2       1 RES1   0.0000
     9 C9      -1.7927  -0.3706  -1.3579   C.2       1 RES1   0.0000
    10 C10     -2.9751  -1.0401  -1.1989   C.2       1 RES1   0.0000
    11 C11     -3.8315  -0.7515  -0.1606   C.2       1 RES1   0.0000
    12 C12     -3.4524   0.2421   0.7180   C.2       1 RES1   0.0000
    13 C13     -2.2470   0.9205   0.5510   C.2       1 RES1   0.0000
    14 H14      4.3073   0.3020   1.2470   H         1 RES1   0.0000
    15 H15      4.8915  -0.7191  -0.0854   H         1 RES1   0.0000
    16 H16      3.7932   0.6380  -0.4161   H         1 RES1   0.0000
    17 H17      1.4529  -0.6546  -1.3607   H         1 RES1   0.0000
    18 H18      1.9110   1.3469  -0.0687   H         1 RES1   0.0000
    19 H19      0.7827   0.7600   1.1963   H         1 RES1   0.0000
    20 H20     -0.2950   2.3847  -0.1842   H         1 RES1   0.0000
    21 H21      0.1321   1.5593  -1.6931   H         1 RES1   0.0000
    22 H22     -1.1602  -0.6262  -2.1754   H         1 RES1   0.0000
    23 H23     -3.2638  -1.8158  -1.8907   H         1 RES1   0.0000
    24 H24     -4.7630  -1.2417   0.0091   H         1 RES1   0.0000
    25 H25     -4.1133   0.4944   1.5545   H         1 RES1   0.0000
    26 H26     -1.9794   1.6881   1.2502   H         1 RES1   0.0000
@<TRIPOS>BOND
     1     1     2    1
     2     2     3    2
     3     2     4    2
     4     2     5    1
     5     5     6    1
     6     6     7    1
     7     7     8    1
     8     8     9    2
     9     9    10    1
    10    10    11    2
    11    11    12    1
    12    12    13    2
    13     8    13    1
    14     1    14    1
    15     1    15    1
    16     1    16    1
    17     5    17    1
    18     6    18    1
    19     6    19    1
    20     7    20    1
    21     7    21    1
    22     9    22    1
    23    10    23    1
    24    11    24    1
    25    12    25    1
    26    13    26    1
@<TRIPOS>SUBSTRUCTURE
     1 RES1        1 GROUP             0 ****  ****    0  
@<TRIPOS>CRYSIN
    1.0000    1.0000    1.0000   90.0000   90.0000   90.0000     1     1
