@<TRIPOS>MOLECULE

    30    31     1     0     0
SMALL
NO_CHARGES
****
Generated from the CSD

@<TRIPOS>ATOM
     1 C1       0.5656  -1.3945  -1.8961   C.3       1 RES1   0.0000
     2 N2       0.1078  -1.4231  -0.5169   N.am      1 RES1   0.0000
     3 C3       0.9171  -2.1257   0.4824   C.3       1 RES1   0.0000
     4 C4       1.9081  -1.1919   1.0939   C.2       1 RES1   0.0000
     5 C5       2.0936   0.1330   0.8156   C.2       1 RES1   0.0000
     6 C6       3.1215   0.5701   1.6314   C.2       1 RES1   0.0000
     7 C7       3.7165   1.9226   1.7282   C.3       1 RES1   0.0000
     8 O8       3.4987  -0.4756   2.3427   O.3       1 RES1   0.0000
     9 N9       2.7952  -1.5158   2.0373   N.2       1 RES1   0.0000
    10 C10     -1.1016  -0.7801  -0.1523   C.2       1 RES1   0.0000
    11 O11     -1.4682  -0.8249   1.0497   O.2       1 RES1   0.0000
    12 N12     -1.8551  -0.1119  -1.1441   N.am      1 RES1   0.0000
    13 C13     -3.0775   0.5502  -0.8312   C.3       1 RES1   0.0000
    14 C14     -3.3489   1.8680  -1.5149   C.3       1 RES1   0.0000
    15 C15     -4.1827   0.6763  -1.8080   C.3       1 RES1   0.0000
    16 H16     -0.3003  -1.6661  -2.5630   H         1 RES1   0.0000
    17 H17      1.4120  -2.0838  -2.0631   H         1 RES1   0.0000
    18 H18      0.8744  -0.3561  -2.1442   H         1 RES1   0.0000
    19 H19      0.2492  -2.4843   1.2925   H         1 RES1   0.0000
    20 H20      1.4205  -3.0042   0.0243   H         1 RES1   0.0000
    21 H21      1.5552   0.7461   0.1007   H         1 RES1   0.0000
    22 H22      4.8255   1.8228   1.7183   H         1 RES1   0.0000
    23 H23      3.4565   2.3754   2.6998   H         1 RES1   0.0000
    24 H24      3.4099   2.5583   0.8995   H         1 RES1   0.0000
    25 H25     -1.5254  -0.0877  -2.1517   H         1 RES1   0.0000
    26 H26     -3.3876   0.5000   0.2407   H         1 RES1   0.0000
    27 H27     -3.7615   2.6823  -0.8868   H         1 RES1   0.0000
    28 H28     -2.5662   2.2122  -2.2055   H         1 RES1   0.0000
    29 H29     -4.1308   0.1867  -2.8078   H         1 RES1   0.0000
    30 H30     -5.2215   0.7217  -1.4195   H         1 RES1   0.0000
@<TRIPOS>BOND
     1     1     2    1
     2     2     3    1
     3     3     4    1
     4     4     5    1
     5     5     6    2
     6     6     7    1
     7     6     8    1
     8     8     9    1
     9     2    10   am
    10    10    11    2
    11    10    12   am
    12    12    13    1
    13    13    14    1
    14    14    15    1
    15     4     9    2
    16    15    13    1
    17     1    16    1
    18     1    17    1
    19     1    18    1
    20     3    19    1
    21     3    20    1
    22     5    21    1
    23     7    22    1
    24     7    23    1
    25     7    24    1
    26    12    25    1
    27    13    26    1
    28    14    27    1
    29    14    28    1
    30    15    29    1
    31    15    30    1
@<TRIPOS>SUBSTRUCTURE
     1 RES1        1 GROUP             0 ****  ****    0  
@<TRIPOS>CRYSIN
    1.0000    1.0000    1.0000   90.0000   90.0000   90.0000     1     1
