@<TRIPOS>MOLECULE

    29    30     1     0     0
SMALL
NO_CHARGES
****
Generated from the CSD

@<TRIPOS>ATOM
     1 C1      -1.3361   2.4208   0.5765   C.3       1 RES1   0.0000
     2 N2      -1.4752   0.9812   0.4305   N.pl3     1 RES1   0.0000
     3 C3      -2.7486   0.4138   0.8217   C.3       1 RES1   0.0000
     4 C4      -2.9846  -0.9723   0.3531   C.3       1 RES1   0.0000
     5 C5      -2.0766  -1.4670  -0.7234   C.3       1 RES1   0.0000
     6 C6      -0.6880  -1.0294  -0.6468   C.2       1 RES1   0.0000
     7 C7       0.3154  -1.8309  -1.1464   C.2       1 RES1   0.0000
     8 C8       1.6118  -1.3685  -1.0495   C.2       1 RES1   0.0000
     9 C9       1.9073  -0.1380  -0.4699   C.2       1 RES1   0.0000
    10 C10      0.8963   0.6550   0.0262   C.2       1 RES1   0.0000
    11 C11     -0.4092   0.1915  -0.0702   C.2       1 RES1   0.0000
    12 S12      3.5374   0.4477  -0.3460   S.o2      1 RES1   0.0000
    13 O13      3.5205   1.9636  -0.3123   O.2       1 RES1   0.0000
    14 O14      4.3111  -0.0113  -1.5223   O.2       1 RES1   0.0000
    15 N15      4.2181  -0.0800   1.1457   N.pl3     1 RES1   0.0000
    16 H16     -0.8034   2.6914   1.5118   H         1 RES1   0.0000
    17 H17     -2.3251   2.9331   0.5491   H         1 RES1   0.0000
    18 H18     -0.7384   2.8711  -0.2498   H         1 RES1   0.0000
    19 H19     -3.5350   1.0765   0.4016   H         1 RES1   0.0000
    20 H20     -2.8172   0.5098   1.9265   H         1 RES1   0.0000
    21 H21     -4.0300  -1.0982  -0.0002   H         1 RES1   0.0000
    22 H22     -2.8782  -1.6585   1.2258   H         1 RES1   0.0000
    23 H23     -2.4659  -1.1899  -1.7373   H         1 RES1   0.0000
    24 H24     -2.0796  -2.5933  -0.7271   H         1 RES1   0.0000
    25 H25      0.0797  -2.7843  -1.5948   H         1 RES1   0.0000
    26 H26      2.4570  -1.9367  -1.4173   H         1 RES1   0.0000
    27 H27      1.0520   1.6077   0.4821   H         1 RES1   0.0000
    28 H28      4.4450  -1.1007   1.1388   H         1 RES1   0.0000
    29 H29      5.0393   0.4961   1.4239   H         1 RES1   0.0000
@<TRIPOS>BOND
     1     1     2    1
     2     2     3    1
     3     3     4    1
     4     4     5    1
     5     5     6    1
     6     6     7    2
     7     7     8    1
     8     8     9    2
     9     9    10    1
    10    10    11    2
    11     9    12    1
    12    12    13    2
    13    12    14    2
    14    12    15    1
    15    11     2    1
    16     6    11    1
    17     1    16    1
    18     1    17    1
    19     1    18    1
    20     3    19    1
    21     3    20    1
    22     4    21    1
    23     4    22    1
    24     5    23    1
    25     5    24    1
    26     7    25    1
    27     8    26    1
    28    10    27    1
    29    15    28    1
    30    15    29    1
@<TRIPOS>SUBSTRUCTURE
     1 RES1        1 GROUP             0 ****  ****    0  
@<TRIPOS>CRYSIN
    1.0000    1.0000    1.0000   90.0000   90.0000   90.0000     1     1
