@<TRIPOS>MOLECULE

    26    27     1     0     0
SMALL
NO_CHARGES
****
Generated from the CSD

@<TRIPOS>ATOM
     1 C1       5.1507   0.7288  -0.4337   C.3       1 RES1   0.0000
     2 C2       3.7051   0.3818  -0.2354   C.2       1 RES1   0.0000
     3 N3       2.7380   0.2825  -1.1414   N.2       1 RES1   0.0000
     4 N4       1.5673  -0.0237  -0.7837   N.2       1 RES1   0.0000
     5 C5       1.3020  -0.2467   0.4993   C.2       1 RES1   0.0000
     6 C6      -0.0166  -0.6210   1.1320   C.3       1 RES1   0.0000
     7 N7      -0.9977  -0.6960   0.0883   N.3       1 RES1   0.0000
     8 C8      -1.1945   0.4996  -0.6287   C.3       1 RES1   0.0000
     9 C9      -2.5063   1.1885  -0.4138   C.3       1 RES1   0.0000
    10 C10     -3.6553   0.2515  -0.4217   C.2       1 RES1   0.0000
    11 C11     -3.4166  -1.0021  -0.0664   C.2       1 RES1   0.0000
    12 F12     -4.4747  -1.8565  -0.0758   F         1 RES1   0.0000
    13 C13     -2.1058  -1.5245   0.3313   C.3       1 RES1   0.0000
    14 S14      2.8405   0.0062   1.1987   S.3       1 RES1   0.0000
    15 H15      5.7307   0.3315   0.4131   H         1 RES1   0.0000
    16 H16      5.5393   0.2025  -1.3535   H         1 RES1   0.0000
    17 H17      5.2648   1.8230  -0.5002   H         1 RES1   0.0000
    18 H18      0.1530  -1.5667   1.6499   H         1 RES1   0.0000
    19 H19     -0.2945   0.2211   1.7958   H         1 RES1   0.0000
    20 H20     -0.3962   1.2334  -0.3121   H         1 RES1   0.0000
    21 H21     -1.0040   0.3390  -1.7255   H         1 RES1   0.0000
    22 H22     -2.6538   1.8938  -1.2583   H         1 RES1   0.0000
    23 H23     -2.4813   1.8136   0.5064   H         1 RES1   0.0000
    24 H24     -4.6193   0.6260  -0.7117   H         1 RES1   0.0000
    25 H25     -2.1586  -1.7282   1.4415   H         1 RES1   0.0000
    26 H26     -2.0163  -2.5573  -0.1188   H         1 RES1   0.0000
@<TRIPOS>BOND
     1     1     2    1
     2     2     3    2
     3     3     4    1
     4     4     5    2
     5     5     6    1
     6     6     7    1
     7     7     8    1
     8     8     9    1
     9     9    10    1
    10    10    11    2
    11    11    12    1
    12    11    13    1
    13     5    14    1
    14    14     2    1
    15    13     7    1
    16     1    15    1
    17     1    16    1
    18     1    17    1
    19     6    18    1
    20     6    19    1
    21     8    20    1
    22     8    21    1
    23     9    22    1
    24     9    23    1
    25    10    24    1
    26    13    25    1
    27    13    26    1
@<TRIPOS>SUBSTRUCTURE
     1 RES1        1 GROUP             0 ****  ****    0  
@<TRIPOS>CRYSIN
    1.0000    1.0000    1.0000   90.0000   90.0000   90.0000     1     1
