@<TRIPOS>MOLECULE

    38    39     1     0     0
SMALL
NO_CHARGES
****
Generated from the CSD

@<TRIPOS>ATOM
     1 C1       4.3033  -1.2673   2.0215   C.3       1 RES1   0.0000
     2 N2       4.1197  -1.1128   0.5916   N.3       1 RES1   0.0000
     3 C3       3.9320   0.2657   0.2924   C.3       1 RES1   0.0000
     4 C4       2.4775   0.6229   0.6254   C.3       1 RES1   0.0000
     5 N5       1.6779  -0.0506  -0.3741   N.am      1 RES1   0.0000
     6 C6       2.1105  -1.3583  -0.8120   C.3       1 RES1   0.0000
     7 C7       3.1101  -1.9876   0.1029   C.3       1 RES1   0.0000
     8 C8       0.5234   0.5771  -0.8807   C.2       1 RES1   0.0000
     9 O9      -0.1502  -0.0456  -1.7549   O.2       1 RES1   0.0000
    10 C10      0.1401   1.9114  -0.3900   C.3       1 RES1   0.0000
    11 O11     -1.0734   2.2940  -0.9779   O.3       1 RES1   0.0000
    12 C12     -2.2201   1.5637  -0.7286   C.2       1 RES1   0.0000
    13 C13     -2.2086   0.4743   0.1107   C.2       1 RES1   0.0000
    14 C14     -3.3750  -0.2538   0.3484   C.2       1 RES1   0.0000
    15 C15     -4.5667   0.0830  -0.2372   C.2       1 RES1   0.0000
    16 C16     -5.8143  -0.6827   0.0072   C.3       1 RES1   0.0000
    17 C17     -4.5555   1.1764  -1.0723   C.2       1 RES1   0.0000
    18 C18     -3.4295   1.9123  -1.3276   C.2       1 RES1   0.0000
    19 H19      4.3474  -0.2896   2.5496   H         1 RES1   0.0000
    20 H20      5.2794  -1.7706   2.2587   H         1 RES1   0.0000
    21 H21      3.4530  -1.8189   2.4723   H         1 RES1   0.0000
    22 H22      4.0365   0.4849  -0.8017   H         1 RES1   0.0000
    23 H23      4.6374   0.8803   0.8696   H         1 RES1   0.0000
    24 H24      2.3376   1.7156   0.6341   H         1 RES1   0.0000
    25 H25      2.2031   0.1577   1.6165   H         1 RES1   0.0000
    26 H26      2.4739  -1.3842  -1.8416   H         1 RES1   0.0000
    27 H27      1.1880  -2.0101  -0.7800   H         1 RES1   0.0000
    28 H28      2.5749  -2.4899   0.9529   H         1 RES1   0.0000
    29 H29      3.6074  -2.8210  -0.4496   H         1 RES1   0.0000
    30 H30     -0.0087   1.8767   0.7128   H         1 RES1   0.0000
    31 H31      0.9335   2.6717  -0.5532   H         1 RES1   0.0000
    32 H32     -1.3150   0.1256   0.6456   H         1 RES1   0.0000
    33 H33     -3.3607  -1.1236   1.0192   H         1 RES1   0.0000
    34 H34     -5.6017  -1.6934   0.3994   H         1 RES1   0.0000
    35 H35     -6.4792  -0.6988  -0.8820   H         1 RES1   0.0000
    36 H36     -6.4036  -0.1576   0.8137   H         1 RES1   0.0000
    37 H37     -5.5055   1.4536  -1.5454   H         1 RES1   0.0000
    38 H38     -3.3989   2.7693  -1.9761   H         1 RES1   0.0000
@<TRIPOS>BOND
     1     1     2    1
     2     2     3    1
     3     3     4    1
     4     4     5    1
     5     5     6    1
     6     6     7    1
     7     5     8   am
     8     8     9    2
     9     8    10    1
    10    10    11    1
    11    11    12    1
    12    12    13    2
    13    13    14    1
    14    14    15    2
    15    15    16    1
    16    15    17    1
    17    17    18    2
    18     7     2    1
    19    12    18    1
    20     1    19    1
    21     1    20    1
    22     1    21    1
    23     3    22    1
    24     3    23    1
    25     4    24    1
    26     4    25    1
    27     6    26    1
    28     6    27    1
    29     7    28    1
    30     7    29    1
    31    10    30    1
    32    10    31    1
    33    13    32    1
    34    14    33    1
    35    16    34    1
    36    16    35    1
    37    16    36    1
    38    17    37    1
    39    18    38    1
@<TRIPOS>SUBSTRUCTURE
     1 RES1        1 GROUP             0 ****  ****    0  
@<TRIPOS>CRYSIN
    1.0000    1.0000    1.0000   90.0000   90.0000   90.0000     1     1
