@<TRIPOS>MOLECULE

    37    39     1     0     0
SMALL
NO_CHARGES
****
Generated from the CSD

@<TRIPOS>ATOM
     1 C1       5.1744  -0.5904   0.0207   C.3       1 RES1   0.0000
     2 N2       3.8165  -0.1804  -0.1071   N.3       1 RES1   0.0000
     3 C3       3.3918   0.8889   0.7256   C.3       1 RES1   0.0000
     4 C4       1.8792   0.7231   1.0068   C.3       1 RES1   0.0000
     5 N5       1.2404   0.3859  -0.2751   N.am      1 RES1   0.0000
     6 C6       2.0039   0.5775  -1.4852   C.3       1 RES1   0.0000
     7 C7       3.2289  -0.3007  -1.3876   C.3       1 RES1   0.0000
     8 C8      -0.0662  -0.1065  -0.2785   C.2       1 RES1   0.0000
     9 O9      -0.6203  -0.3942  -1.3743   O.2       1 RES1   0.0000
    10 C10     -0.7955  -0.2905   0.9909   C.3       1 RES1   0.0000
    11 C11     -2.1661  -0.8211   0.7847   C.2       1 RES1   0.0000
    12 C12     -2.6388  -2.1047   0.9849   C.2       1 RES1   0.0000
    13 N13     -3.9372  -2.1984   0.6877   N.pl3     1 RES1   0.0000
    14 C14     -4.3174  -0.9624   0.2889   C.2       1 RES1   0.0000
    15 N15     -5.5329  -0.5413  -0.1148   N.2       1 RES1   0.0000
    16 C16     -5.7196   0.7451  -0.4779   C.2       1 RES1   0.0000
    17 C17     -4.6761   1.6525  -0.4442   C.2       1 RES1   0.0000
    18 C18     -3.4312   1.2138  -0.0292   C.2       1 RES1   0.0000
    19 C19     -3.2472  -0.0953   0.3391   C.2       1 RES1   0.0000
    20 H20      5.3251  -1.5082   0.6214   H         1 RES1   0.0000
    21 H21      5.5868  -0.7391  -1.0083   H         1 RES1   0.0000
    22 H22      5.7695   0.2186   0.4738   H         1 RES1   0.0000
    23 H23      3.5753   1.8474   0.1934   H         1 RES1   0.0000
    24 H24      3.9335   0.9287   1.6672   H         1 RES1   0.0000
    25 H25      1.7895  -0.1198   1.6926   H         1 RES1   0.0000
    26 H26      1.5055   1.6825   1.3677   H         1 RES1   0.0000
    27 H27      1.3979   0.3849  -2.3805   H         1 RES1   0.0000
    28 H28      2.3758   1.6430  -1.5002   H         1 RES1   0.0000
    29 H29      2.8774  -1.3393  -1.6254   H         1 RES1   0.0000
    30 H30      3.9731  -0.0543  -2.1757   H         1 RES1   0.0000
    31 H31     -0.8346   0.6819   1.5500   H         1 RES1   0.0000
    32 H32     -0.1929  -0.9712   1.6483   H         1 RES1   0.0000
    33 H33     -1.9899  -2.8987   1.3399   H         1 RES1   0.0000
    34 H34     -4.5385  -3.0705   0.7551   H         1 RES1   0.0000
    35 H35     -6.7061   1.0929  -0.8080   H         1 RES1   0.0000
    36 H36     -4.8187   2.6967  -0.7366   H         1 RES1   0.0000
    37 H37     -2.6154   1.9237  -0.0029   H         1 RES1   0.0000
@<TRIPOS>BOND
     1     1     2    1
     2     2     3    1
     3     3     4    1
     4     4     5    1
     5     5     6    1
     6     6     7    1
     7     5     8   am
     8     8     9    2
     9     8    10    1
    10    10    11    1
    11    11    12    2
    12    12    13    1
    13    13    14    1
    14    14    15    2
    15    15    16    1
    16    16    17    2
    17    17    18    1
    18    18    19    2
    19     7     2    1
    20    19    11    1
    21    19    14    1
    22     1    20    1
    23     1    21    1
    24     1    22    1
    25     3    23    1
    26     3    24    1
    27     4    25    1
    28     4    26    1
    29     6    27    1
    30     6    28    1
    31     7    29    1
    32     7    30    1
    33    10    31    1
    34    10    32    1
    35    12    33    1
    36    13    34    1
    37    16    35    1
    38    17    36    1
    39    18    37    1
@<TRIPOS>SUBSTRUCTURE
     1 RES1        1 GROUP             0 ****  ****    0  
@<TRIPOS>CRYSIN
    1.0000    1.0000    1.0000   90.0000   90.0000   90.0000     1     1
