@<TRIPOS>MOLECULE

    20    20     1     0     0
SMALL
NO_CHARGES
****
Generated from the CSD

@<TRIPOS>ATOM
     1 C1      -2.6864   0.7167  -2.3260   C.3       1 RES1   0.0000
     2 C2      -1.7709   0.9090  -1.1543   C.3       1 RES1   0.0000
     3 N3      -0.8384  -0.1739  -1.0894   N.pl3     1 RES1   0.0000
     4 C4       0.1513  -0.2281  -0.0537   C.2       1 RES1   0.0000
     5 C5       1.0616  -1.2614   0.0307   C.2       1 RES1   0.0000
     6 C6       2.0266  -1.3402   1.0177   C.2       1 RES1   0.0000
     7 C7       2.0941  -0.3424   1.9725   C.2       1 RES1   0.0000
     8 C8       3.0709  -0.3561   3.0298   C.1       1 RES1   0.0000
     9 N9       3.8468  -0.3758   3.8935   N.1       1 RES1   0.0000
    10 C10      1.1704   0.6775   1.8616   C.2       1 RES1   0.0000
    11 N11      0.2413   0.7273   0.8883   N.2       1 RES1   0.0000
    12 H12     -3.3828   1.5539  -2.4837   H         1 RES1   0.0000
    13 H13     -3.2768  -0.2172  -2.1216   H         1 RES1   0.0000
    14 H14     -2.0627   0.4986  -3.2131   H         1 RES1   0.0000
    15 H15     -2.4381   0.9528  -0.2431   H         1 RES1   0.0000
    16 H16     -1.2741   1.9123  -1.1651   H         1 RES1   0.0000
    17 H17     -0.8831  -0.9281  -1.8043   H         1 RES1   0.0000
    18 H18      0.9924  -2.0449  -0.7367   H         1 RES1   0.0000
    19 H19      2.7316  -2.1507   1.0741   H         1 RES1   0.0000
    20 H20      1.2264   1.4704   2.6228   H         1 RES1   0.0000
@<TRIPOS>BOND
     1     1     2    1
     2     2     3    1
     3     3     4    1
     4     4     5    2
     5     5     6    1
     6     6     7    2
     7     7     8    1
     8     8     9    3
     9     7    10    1
    10    10    11    2
    11     4    11    1
    12     1    12    1
    13     1    13    1
    14     1    14    1
    15     2    15    1
    16     2    16    1
    17     3    17    1
    18     5    18    1
    19     6    19    1
    20    10    20    1
@<TRIPOS>SUBSTRUCTURE
     1 RES1        1 GROUP             0 ****  ****    0  
@<TRIPOS>CRYSIN
    1.0000    1.0000    1.0000   90.0000   90.0000   90.0000     1     1
