@<TRIPOS>MOLECULE

    28    29     1     0     0
SMALL
NO_CHARGES
****
Generated from the CSD

@<TRIPOS>ATOM
     1 N1       6.3494  -0.8105   0.5983   N.1       1 RES1   0.0000
     2 C2       5.2117  -0.6593   0.4378   C.1       1 RES1   0.0000
     3 C3       3.7858  -0.4587   0.2529   C.2       1 RES1   0.0000
     4 C4       2.9701  -1.5450   0.0221   C.2       1 RES1   0.0000
     5 C5       1.5942  -1.3527  -0.1565   C.2       1 RES1   0.0000
     6 C6       1.0754  -0.0800  -0.0990   C.2       1 RES1   0.0000
     7 C7       1.9121   0.9800   0.1322   C.2       1 RES1   0.0000
     8 N8       3.2507   0.7737   0.3039   N.2       1 RES1   0.0000
     9 N9      -0.3135   0.1463  -0.2716   N.pl3     1 RES1   0.0000
    10 C10     -1.1066  -1.0358  -0.3877   C.3       1 RES1   0.0000
    11 C11     -2.5796  -0.8493  -0.2729   C.3       1 RES1   0.0000
    12 C12     -3.0087   0.2511   0.6550   C.3       1 RES1   0.0000
    13 O13     -3.1188   1.4776   0.0222   O.3       1 RES1   0.0000
    14 C14     -2.0961   1.7570  -0.8475   C.3       1 RES1   0.0000
    15 C15     -0.7286   1.5139  -0.3098   C.3       1 RES1   0.0000
    16 H16      3.4064  -2.5440  -0.0188   H         1 RES1   0.0000
    17 H17      1.0078  -2.2258  -0.3335   H         1 RES1   0.0000
    18 H18      1.6020   2.0057   0.1955   H         1 RES1   0.0000
    19 H19     -0.8962  -1.5460  -1.3489   H         1 RES1   0.0000
    20 H20     -0.8126  -1.7586   0.4190   H         1 RES1   0.0000
    21 H21     -3.0774  -1.7930   0.0529   H         1 RES1   0.0000
    22 H22     -3.0347  -0.6233  -1.2825   H         1 RES1   0.0000
    23 H23     -4.0265  -0.0072   1.0190   H         1 RES1   0.0000
    24 H24     -2.3713   0.2962   1.5711   H         1 RES1   0.0000
    25 H25     -2.2378   1.1809  -1.7719   H         1 RES1   0.0000
    26 H26     -2.1604   2.8623  -1.0760   H         1 RES1   0.0000
    27 H27     -0.5599   1.9468   0.6951   H         1 RES1   0.0000
    28 H28     -0.0367   2.0977  -0.9906   H         1 RES1   0.0000
@<TRIPOS>BOND
     1     1     2    3
     2     2     3    1
     3     3     4    2
     4     4     5    1
     5     5     6    2
     6     6     7    1
     7     7     8    2
     8     6     9    1
     9     9    10    1
    10    10    11    1
    11    11    12    1
    12    12    13    1
    13    13    14    1
    14    14    15    1
    15     3     8    1
    16    15     9    1
    17     4    16    1
    18     5    17    1
    19     7    18    1
    20    10    19    1
    21    10    20    1
    22    11    21    1
    23    11    22    1
    24    12    23    1
    25    12    24    1
    26    14    25    1
    27    14    26    1
    28    15    27    1
    29    15    28    1
@<TRIPOS>SUBSTRUCTURE
     1 RES1        1 GROUP             0 ****  ****    0  
@<TRIPOS>CRYSIN
    1.0000    1.0000    1.0000   90.0000   90.0000   90.0000     1     1
