@<TRIPOS>MOLECULE

    26    27     1     0     0
SMALL
NO_CHARGES
****
Generated from the CSD

@<TRIPOS>ATOM
     1 O1      -0.5435   1.7008  -0.7996   O.2       1 RES1   0.0000
     2 C2      -1.2528   1.1280   0.0479   C.2       1 RES1   0.0000
     3 C3      -0.8511  -0.1053   0.7178   C.3       1 RES1   0.0000
     4 C4       0.4682  -0.6829   0.3345   C.3       1 RES1   0.0000
     5 C5       1.5975   0.3185   0.3576   C.2       1 RES1   0.0000
     6 C6       2.1758   0.6743   1.5389   C.2       1 RES1   0.0000
     7 S7       3.3837   1.7781   1.0677   S.3       1 RES1   0.0000
     8 C8       3.1294   1.7641  -0.6153   C.2       1 RES1   0.0000
     9 C9       2.0896   0.8823  -0.7692   C.2       1 RES1   0.0000
    10 C10      0.2442  -1.2990  -0.9952   C.3       1 RES1   0.0000
    11 C11     -1.0754  -2.0429  -0.7458   C.3       1 RES1   0.0000
    12 C12     -1.8167  -1.1979   0.2550   C.3       1 RES1   0.0000
    13 N13     -2.5112   1.6932   0.3844   N.am      1 RES1   0.0000
    14 H14     -0.8920  -0.0202   1.8348   H         1 RES1   0.0000
    15 H15      0.6941  -1.4619   1.1032   H         1 RES1   0.0000
    16 H16      1.9126   0.3218   2.5541   H         1 RES1   0.0000
    17 H17      3.6659   2.3253  -1.4020   H         1 RES1   0.0000
    18 H18      1.7303   0.6841  -1.8103   H         1 RES1   0.0000
    19 H19      0.1518  -0.5878  -1.8132   H         1 RES1   0.0000
    20 H20      1.0470  -2.0172  -1.2683   H         1 RES1   0.0000
    21 H21     -1.6392  -2.1716  -1.6927   H         1 RES1   0.0000
    22 H22     -0.8251  -3.0167  -0.2727   H         1 RES1   0.0000
    23 H23     -2.1051  -1.7684   1.1580   H         1 RES1   0.0000
    24 H24     -2.7412  -0.7404  -0.2066   H         1 RES1   0.0000
    25 H25     -2.8035   1.8992   1.3754   H         1 RES1   0.0000
    26 H26     -3.2333   1.9426  -0.3382   H         1 RES1   0.0000
@<TRIPOS>BOND
     1     1     2    2
     2     2     3    1
     3     3     4    1
     4     4     5    1
     5     5     6    2
     6     6     7    1
     7     7     8    1
     8     8     9    2
     9     4    10    1
    10    10    11    1
    11    11    12    1
    12     2    13   am
    13    12     3    1
    14     9     5    1
    15     3    14    1
    16     4    15    1
    17     6    16    1
    18     8    17    1
    19     9    18    1
    20    10    19    1
    21    10    20    1
    22    11    21    1
    23    11    22    1
    24    12    23    1
    25    12    24    1
    26    13    25    1
    27    13    26    1
@<TRIPOS>SUBSTRUCTURE
     1 RES1        1 GROUP             0 ****  ****    0  
@<TRIPOS>CRYSIN
    1.0000    1.0000    1.0000   90.0000   90.0000   90.0000     1     1
